72
Ru01 SCF Done: -3672.22033654 A.U.
  N      1.069943     0.405072     1.003703
  C      0.762569     0.756202     2.383661
  C     -0.758833     0.916282     2.357600
  N     -1.119693     0.336882     1.070505
  C     -0.039567     0.108733     0.292687
  C     -2.472926     0.210117     0.667779
  C      2.405211     0.232212     0.559797
  C     -3.163057    -0.962918     0.967400
  C     -4.497820    -1.074402     0.615422
  C     -5.176490    -0.033588    -0.040830
  C     -4.444854     1.128452    -0.338855
  C     -3.108239     1.256533     0.000673
  C      3.032654    -1.003392     0.687291
  C      3.088846     1.322492     0.022646
  C      4.407673     1.169665    -0.367869
  C      5.075590    -0.061382    -0.258142
  C      4.355996    -1.133919     0.290811
  C     -2.445394    -2.110684     1.608068
  C     -2.341692     2.483980    -0.383312
  C      2.380185     2.627077    -0.174440
  C      2.275186    -2.188155     1.201635
  Se    -0.069316    -0.497867    -1.421613
  N     -6.502659    -0.148200    -0.381881
  N      6.381824    -0.214085    -0.701345
  C      7.231253     0.959693    -0.770937
  C      7.663175     1.493038     0.588002
  C      7.026616    -1.493773    -0.462804
  C      8.357894    -1.667532    -1.166906
  C     -7.162917     0.845838    -1.197225
  C     -7.756012     1.996840    -0.396897
  C     -7.287393    -1.298011     0.004992
  C     -7.190423    -2.464112    -0.969189
  H      1.280213     1.672745     2.674118
  H      1.082624    -0.042972     3.061509
  H     -1.065892     1.967109     2.402357
  H     -1.254312     0.385326     3.173077
  H     -5.002314    -2.006781     0.831208
  H     -4.919912     1.958740    -0.844310
  H      4.908840     2.030750    -0.788488
  H      4.819619    -2.102164     0.415151
  H     -1.616861    -2.436252     0.972908
  H     -3.117807    -2.955567     1.761714
  H     -2.022615    -1.834838     2.578445
  H     -2.993393     3.220452    -0.854947
  H     -1.866707     2.957068     0.480511
  H     -1.548525     2.217512    -1.088461
  H      1.528738     2.492200    -0.847508
  H      3.047991     3.373532    -0.606116
  H      1.990773     3.025347     0.766892
  H      2.922729    -3.062442     1.277960
  H      1.841920    -2.001858     2.188050
  H      1.451217    -2.422790     0.520802
  H      8.106267     0.708239    -1.369398
  H      6.716735     1.735886    -1.338377
  H      6.794055     1.758563     1.193657
  H      8.240366     0.744047     1.136598
  H      8.287755     2.382843     0.474651
  H      6.353761    -2.270633    -0.833248
  H      7.156061    -1.681356     0.616032
  H      8.683065    -2.703611    -1.051511
  H      9.144489    -1.033680    -0.752854
  H      8.269804    -1.460307    -2.235995
  H     -7.954985     0.340268    -1.757676
  H     -6.463820     1.221837    -1.949332
  H     -8.498394     1.629874     0.316268
  H     -6.982094     2.520132     0.167862
  H     -8.246898     2.716549    -1.057534
  H     -8.328987    -0.973185     0.088822
  H     -6.994514    -1.612610     1.010219
  H     -7.803966    -3.303676    -0.631509
  H     -6.159176    -2.807792    -1.067955
  H     -7.538413    -2.168403    -1.961987
