74
E:\Data\PythonProjects\short_bridge\out\l_1.out	Energy: -1207315.6871676
Rh         0.09702        1.32696        0.05512
P         -1.54115       -0.04526        1.10113
P          0.73197       -0.97561       -0.23502
C         -0.86713        3.34231        0.31802
H         -1.92509        3.13455        0.43629
C         -0.52560        4.17122       -0.89465
H         -0.74844        5.22767       -0.70028
H         -1.19469        3.87107       -1.70406
C          0.93591        4.02067       -1.36515
H          0.99249        4.29611       -2.41950
H          1.58007        4.72372       -0.83765
C          1.47832        2.61274       -1.20632
H          1.55770        2.04683       -2.12720
C          2.18487        2.13986       -0.11784
H          2.80691        1.26511       -0.26841
C          2.47544        2.89543        1.15564
H          3.36536        3.52245        1.01897
H          2.74200        2.16369        1.92103
C          1.29914        3.75359        1.66153
H          1.41927        3.91372        2.73430
H          1.32518        4.74395        1.20743
C         -0.06064        3.12134        1.41959
H         -0.54506        2.73110        2.30651
C         -0.28943       -1.43542        1.26730
H          0.26654       -1.23679        2.17869
H         -0.66508       -2.45587        1.28404
C          2.48758       -1.59990       -0.21530
C          3.10254       -2.29135        0.85727
C          4.44344       -2.65396        0.74218
H          4.90292       -3.18460        1.56842
C          5.21313       -2.36790       -0.38182
C          4.59245       -1.69292       -1.42365
H          5.16141       -1.45551       -2.31597
C          3.25316       -1.30800       -1.36929
C         -0.10659       -2.01184       -1.52719
H          0.26870       -1.77794       -2.51929
H          0.07362       -3.06706       -1.31739
H         -1.17769       -1.81595       -1.50396
C         -3.04585       -0.74660        0.26987
C         -3.68223       -1.90358        0.78172
C         -3.58151       -0.11621       -0.88003
C         -4.82367       -2.38737        0.14266
C         -4.71773       -0.65370       -1.48115
C         -5.35943       -1.78659       -0.98995
H         -5.30721       -3.26857        0.55053
H         -5.11843       -0.16175       -2.36028
C         -2.09322        0.45958        2.79655
H         -2.65267        1.39098        2.70073
H         -2.73491       -0.27691        3.27336
H         -1.21797        0.64156        3.42015
C         -3.01904        1.14025       -1.50003
H         -1.92607        1.15603       -1.51059
H         -3.37073        1.24164       -2.52641
H         -3.35017        2.02901       -0.95649
C         -6.57281       -2.35285       -1.67605
H         -7.18515       -1.56513       -2.11660
H         -6.27766       -3.02756       -2.48495
H         -7.19301       -2.92295       -0.98399
C         -3.21407       -2.71285        1.97353
H         -2.72544       -3.63359        1.64137
H         -2.52069       -2.19754        2.62929
H         -4.07078       -3.01417        2.57770
C          2.70360       -0.62896       -2.60417
H          3.47108       -0.00834       -3.06700
H          2.39887       -1.36888       -3.34926
H          1.84230        0.00511       -2.40316
C          6.65096       -2.80222       -0.47119
H          7.15056       -2.72771        0.49575
H          6.71892       -3.84538       -0.79309
H          7.20595       -2.20003       -1.19087
C          2.41709       -2.68752        2.14524
H          2.18917       -1.82315        2.77338
H          1.49327       -3.23982        1.97682
H          3.07436       -3.33283        2.72592
