79
E:\Data\PythonProjects\short_bridge\out\l_10.out	Energy: -1279330.1147989
P          1.14513        1.51641       -0.06404
P         -1.02711       -0.11752        0.89680
O         -1.55100        2.51372        0.44871
O         -3.23549       -1.72088       -0.75045
C         -1.73165       -0.60244        2.61065
C         -0.56014       -0.69221        3.59926
C         -2.74758        0.44386        3.08693
C         -2.41486       -1.97395        2.48455
C         -0.49745        1.68677        0.93566
C          0.96679        2.41339       -1.76515
C         -2.53846        1.79031       -0.17220
C         -2.44801        0.39810       -0.12720
C          0.53677        3.88407       -1.64522
C         -0.07803        1.62866       -2.58014
C          2.41678        2.37413        1.11652
C          3.80852        2.45811        0.46664
C          1.97738        3.78214        1.54878
C          2.52134        1.47631        2.36429
C         -3.40302       -0.37298       -0.80407
C         -4.44775        0.26635       -1.47295
C         -3.57674        2.44409       -0.82129
C         -4.19394       -2.56170       -1.40175
C         -4.52332        1.65889       -1.46501
C          2.30301        2.33909       -2.52711
H         -5.19964       -0.30195       -1.99939
H         -3.62772        3.52378       -0.82804
H         -5.34226        2.13921       -1.98531
H          0.22413       -1.36682        3.25214
H          3.86408        3.23698       -0.29050
H          4.12625        1.51771        0.01481
H         -0.24209        2.03503        1.93398
H         -0.11020        0.28248        3.79348
H         -3.60568        0.51511        2.41867
H         -3.24935       -1.95248        1.78547
H         -0.36470        4.00844       -1.04903
H         -1.08389        1.72344       -2.18015
H          0.98812        3.79966        2.00792
H         -4.21421       -2.37460       -2.47756
H          2.13055        2.68948       -3.54792
H          2.69426        1.32422       -2.59700
H         -3.86544       -3.58090       -1.21644
H         -5.19176       -2.41944       -0.98129
H         -0.92903       -1.07116        4.55556
H         -2.30751        1.43787        3.18622
H          1.32352        4.50751       -1.22319
H          2.68390        4.15423        2.29595
H          3.07209        2.97396       -2.09614
H         -3.11891        0.15368        4.07350
H          0.33208        4.26660       -2.64932
H          1.97726        4.48978        0.72289
H          3.28017        1.89192        3.03200
H          1.59150        1.43232        2.93069
H          2.81150        0.45542        2.11472
H         -1.72361       -2.75384        2.16169
H         -2.80217       -2.26520        3.46439
H         -0.09310        2.03052       -3.59654
H          0.16819        0.56705       -2.64188
H          4.53897        2.71026        1.23953
Rh         0.96644       -0.91782       -0.09316
C          0.87254       -3.10565        0.48605
C          0.18622       -2.92208       -0.70027
C          2.58487       -1.54220       -1.57251
C          3.13779       -1.48380       -0.31008
H          0.28499       -3.10265        1.39622
C          2.26064       -3.70293        0.62271
H         -0.89106       -2.80705       -0.64203
C          0.70605       -3.19846       -2.08896
C          2.18312       -2.80818       -2.30499
H          2.70370       -0.66705       -2.19886
H          3.67943       -0.58158       -0.05055
C          3.38342       -2.64513        0.62017
H          2.42548       -4.43578       -0.16680
H          2.30956       -4.25825        1.56075
H          0.56161       -4.25822       -2.33431
H          0.08253       -2.64232       -2.79232
H          2.35016       -2.65753       -3.37277
H          2.84110       -3.62593       -2.01199
H          4.34243       -3.11790        0.37377
H          3.50071       -2.24562        1.62989
