75
E:\Data\PythonProjects\short_bridge\out\l_11.out	Energy: -1207437.2146047
P          0.14663        1.67945        0.16778
P         -1.00959       -0.90782        0.64722
O         -2.72277        1.18626        0.39091
C         -1.50689       -1.97185        2.15687
C         -0.48500       -1.73157        3.27692
C         -2.91698       -1.60292        2.63543
C         -1.47214       -3.44491        1.71677
C         -1.44138        0.89833        0.94375
C         -0.32811        2.66655       -1.42195
C         -3.17790        0.18044       -0.42739
C         -2.42259       -0.99255       -0.51097
C         -1.44525        3.69839       -1.19930
C         -0.77530        1.63296       -2.47238
C          0.77286        2.80617        1.61113
C          2.01870        3.60581        1.19317
C         -0.30194        3.78018        2.11964
C          1.17363        1.85556        2.75589
C         -4.00697       -1.86218       -2.10108
C         -4.35575        0.33946       -1.14438
C         -4.76137       -0.69467       -1.98050
C          0.91973        3.38427       -1.96945
H         -4.33319       -2.65138       -2.76534
H         -4.92958        1.25193       -1.05180
H         -5.67496       -0.58511       -2.55085
H          0.53917       -1.91982        2.95151
H          1.77785        4.42901        0.52497
H          2.78109        2.98967        0.71588
H         -1.46965        1.17111        1.99636
H         -0.53588       -0.71358        3.66585
H         -3.67051       -1.78213        1.86853
H         -2.20606       -3.65574        0.93814
H         -2.33655        3.25946       -0.75660
H         -1.70551        1.13652       -2.20845
H         -1.23296        3.28472        2.39837
H          0.68858        3.75045       -2.97285
H          1.78505        2.72694       -2.05704
H         -0.70152       -2.40528        4.10962
H         -2.98865       -0.56042        2.95096
H         -1.11869        4.52810       -0.57478
H          0.07599        4.28047        3.01555
H          1.20417        4.24632       -1.37188
H         -3.17149       -2.22144        3.50029
H         -1.72278        4.11994       -2.16967
H         -0.53720        4.55461        1.39288
H          1.61100        2.44633        3.56454
H          0.32195        1.32345        3.17944
H          1.91019        1.11641        2.43873
H         -0.48732       -3.75134        1.35938
H         -1.71770       -4.07758        2.57347
H         -0.94250        2.15465       -3.41821
H         -0.01528        0.86818       -2.64060
H          2.46833        4.04117        2.08915
Rh         1.16918       -0.51560       -0.16657
C          2.12701       -2.54239        0.14927
C          1.49094       -2.53070       -1.07895
C          2.94888       -0.06341       -1.52397
C          3.35289        0.05910       -0.21135
H          1.57529       -2.96345        0.98140
C          3.62345       -2.42129        0.36948
H          0.50274       -2.97650       -1.12805
C          2.13299       -2.31272       -2.42598
C          3.24296       -1.24136       -2.43280
H          2.64804        0.84515       -2.03074
H          3.37444        1.05852        0.20670
C          4.09322       -0.97104        0.60395
H          4.15491       -2.86286       -0.47320
H          3.89538       -3.01921        1.24070
H          2.52928       -3.26302       -2.80501
H          1.34678       -2.01828       -3.12445
H          3.36119       -0.87075       -3.45222
H          4.20154       -1.68305       -2.16188
H          5.16989       -0.89077        0.40890
H          3.96355       -0.71884        1.65860
C         -2.83620       -2.01259       -1.36697
H         -2.25572       -2.92137       -1.46210
