87
E:\Data\PythonProjects\short_bridge\out\l_12.out	Energy: -1376535.7231594
P          1.36241       -0.41866       -0.15171
P         -1.27967       -0.11751       -1.17459
O         -0.24903       -2.63930       -1.04439
C         -1.95002        0.28486       -2.91623
C         -0.86755        1.10509       -3.63550
C         -2.24684       -1.00719       -3.68683
C         -3.22972        1.12314       -2.77237
C          0.16695       -1.31288       -1.35264
C         -1.51938       -2.68885       -0.52989
C         -2.24512       -1.49777       -0.47069
C         -4.07440       -2.71151        0.53590
C         -2.04354       -3.89731       -0.09037
C         -3.32635       -3.88486        0.43807
H         -5.06578       -2.74885        0.96162
H         -1.46073       -4.80501       -0.15992
H         -3.76157       -4.81127        0.79086
H         -0.60075        2.00696       -3.08107
H          0.61532       -1.32812       -2.34559
H          0.04313        0.52762       -3.80847
H         -3.01959       -1.60323       -3.20085
H         -4.01596        0.58024       -2.24967
H         -1.24318        1.41337       -4.61426
H         -1.36025       -1.63246       -3.80896
H         -2.60425       -0.75175       -4.68804
H         -3.04936        2.05791       -2.23893
H         -3.59921        1.38065       -3.76838
Rh        -0.18343        1.34321        0.33525
C         -1.45175        3.23079        0.24660
C         -2.04877        2.33674        1.11180
C          0.59498        2.14510        2.31618
C          1.23059        2.81816        1.29329
H         -1.80765        3.23377       -0.77751
C         -0.64238        4.44829        0.65158
H         -2.85027        1.71986        0.72056
C         -1.94165        2.33085        2.61618
C         -0.54285        2.68912        3.15978
H          1.11793        1.29499        2.73878
H          2.21976        2.47082        1.01988
C          0.87360        4.17630        0.74416
H         -1.01706        4.84041        1.59681
H         -0.80807        5.23577       -0.08550
H         -2.69070        3.00909        3.04411
H         -2.21291        1.33066        2.96083
H         -0.44893        2.28409        4.16877
H         -0.43799        3.76924        3.26016
H          1.35588        4.95723        1.34552
H          1.31229        4.25682       -0.25307
C         -3.53332       -1.50833        0.08331
C          1.89727       -1.66525        1.15351
C          3.15060       -1.19720        1.91972
C          0.75552       -1.98117        2.13822
H          2.14170       -2.57661        0.59894
C          3.57995       -2.23361        2.96866
H          2.94110       -0.24560        2.42105
H          3.98018       -1.01482        1.23674
C          1.19237       -3.01882        3.18158
H          0.45512       -1.05981        2.64734
H         -0.12430       -2.34594        1.61023
C          2.44536       -2.57221        3.93764
H          4.44928       -1.85646        3.51271
H          3.90567       -3.14574        2.45650
H          0.36936       -3.19833        3.87771
H          1.38871       -3.97322        2.68068
H          2.76530       -3.35014        4.63451
H          2.20954       -1.69018        4.54440
C          2.79951       -0.12662       -1.34746
C          3.77354        0.99375       -0.94557
C          3.54262       -1.42029       -1.72892
H          2.26787        0.23141       -2.23835
C          4.81788        1.23387       -2.04692
H          4.28700        0.73732       -0.01513
H          3.22158        1.91700       -0.76220
C          4.58186       -1.15654       -2.82901
H          4.05383       -1.82432       -0.85092
H          2.83991       -2.18947       -2.06075
C          5.55979       -0.05040       -2.42523
H          5.52351        1.99926       -1.71526
H          4.31646        1.63739       -2.93402
H          5.11934       -2.08220       -3.04787
H          4.06735       -0.86971       -3.75311
H          6.26129        0.14708       -3.23882
H          6.16053       -0.38943       -1.57359
O         -4.17638       -0.31070        0.13048
C         -5.50868       -0.26252        0.65211
H         -5.53346       -0.57568        1.69815
H         -5.81687        0.77696        0.57683
H         -6.18401       -0.88573        0.06209
