68
E:\Data\PythonProjects\short_bridge\out\l_19.out	Energy: -1050719.2209483
C          0.11119        2.15380       -2.46840
H         -0.06531        1.25036       -3.04632
H          1.11403        2.51418       -2.69612
H         -0.61305        2.91507       -2.75982
C          0.21506        3.41906        0.19598
C         -0.91320        4.38182       -0.20920
H         -1.89693        4.00552        0.07912
H         -0.92031        4.59716       -1.27827
H         -0.77286        5.33391        0.30894
C          1.57616        4.00408       -0.22296
H          1.75571        4.92335        0.33922
H          1.61064        4.26229       -1.28156
H          2.40592        3.32780       -0.00749
C          0.18549        3.21204        1.71634
H          0.94763        2.50710        2.05194
H         -0.78721        2.85437        2.05371
H          0.37270        4.16689        2.21338
C         -2.54865       -1.35458       -1.35019
C         -1.94921       -0.91160       -2.69603
H         -0.87504       -1.10175       -2.74682
H         -2.12644        0.14478       -2.89473
H         -2.42596       -1.48099       -3.49745
C         -2.40120       -2.88251       -1.24141
H         -2.94468       -3.34332       -2.07010
H         -2.80934       -3.29121       -0.32082
H         -1.36208       -3.19956       -1.32683
C         -4.03662       -0.97234       -1.32032
H         -4.52536       -1.38836       -2.20541
H         -4.19291        0.10813       -1.35041
H         -4.55384       -1.37192       -0.44946
C         -2.37366       -0.63230        1.74591
C         -1.31878       -0.22936        2.79158
H         -1.77449       -0.26672        3.78459
H         -0.95072        0.78262        2.63577
H         -0.46354       -0.90488        2.78961
C         -3.58029        0.31107        1.87589
H         -4.38490        0.07325        1.18246
H         -3.29554        1.35424        1.73468
H         -3.98669        0.22181        2.88681
C         -2.80393       -2.08062        2.02616
H         -3.11129       -2.15545        3.07221
H         -1.99096       -2.79462        1.87905
H         -3.65288       -2.39192        1.41952
C          3.04195       -0.09117       -0.70181
H          3.00645        0.71518       -1.42616
C          2.91091        0.25739        0.63074
H          2.81245        1.31351        0.85688
C          3.25571       -0.59247        1.82859
H          2.73828       -0.17079        2.69294
H          4.32680       -0.50207        2.04851
C          2.87274       -2.08049        1.68835
H          3.67406       -2.63545        1.20058
H          2.77610       -2.50950        2.68688
C          1.57363       -2.30042        0.93810
H          0.72406       -2.58799        1.54709
C          1.46291       -2.50672       -0.42034
H          0.54896       -2.96952       -0.77231
C          2.57991       -2.49709       -1.43390
H          2.13129       -2.36959       -2.42130
H          3.06742       -3.47979       -1.45231
C          3.63288       -1.39222       -1.21167
H          4.40638       -1.73579       -0.52474
H          4.13843       -1.19861       -2.15890
N         -1.62144        1.21854       -0.36747
H         -2.46636        1.73246       -0.58615
P         -0.00664        1.74236       -0.66952
P         -1.53162       -0.47231        0.02225
Rh         0.88572       -0.35837       -0.06395
