68
E:\Data\PythonProjects\short_bridge\out\l_20b.out	Energy: -1157977.1002170
Rh        -0.01432        1.18705       -0.03645
P         -0.86112       -0.96336        0.44391
P          1.30127       -0.38404       -1.21074
C         -1.88706        2.35279        0.41093
H         -2.66024        1.59545        0.48393
C         -2.07020        3.32035       -0.73240
H         -2.81442        4.07840       -0.45781
H         -2.50552        2.76664       -1.56704
C         -0.77367        4.01122       -1.20643
H         -0.92143        4.35765       -2.23062
H         -0.58082        4.90519       -0.61383
C          0.44670        3.10962       -1.17517
H          0.78550        2.75295       -2.14168
C          1.33031        2.99474       -0.12270
H          2.31253        2.58960       -0.34502
C          1.22182        3.66343        1.22556
H          1.65107        4.67176        1.17396
H          1.85412        3.10901        1.92286
C         -0.21205        3.73695        1.79571
H         -0.14580        3.85718        2.87821
H         -0.72128        4.62720        1.42728
C         -1.05278        2.50945        1.49814
H         -1.20804        1.83671        2.33521
C          0.07612       -1.78099       -0.95625
H          0.49681       -2.76372       -0.74176
H         -0.57824       -1.85353       -1.82595
C          2.89635       -0.96665       -0.50734
C          3.43964       -0.30940        0.59559
C          4.64348       -0.73874        1.16245
C          5.28038       -1.84242        0.59966
C          4.75859       -2.52180       -0.50579
C          3.55841       -2.07192       -1.05164
C          1.58329       -0.26073       -3.03260
H          2.31685        0.52186       -3.22714
H          1.95260       -1.20050       -3.44278
H          0.64612        0.00347       -3.52205
C         -0.23050       -1.78736        1.96795
H         -0.68313       -1.33896        2.85172
H         -0.43768       -2.85786        1.95270
H          0.84655       -1.63189        2.01748
H          6.21243       -2.18887        1.03412
H          3.14419       -2.59864       -1.90399
H          2.91988        0.53992        1.02322
C         -2.63071       -1.42897        0.28877
C         -3.29452       -2.15949        1.27279
C         -3.33008       -1.00115       -0.84580
C         -4.64808       -2.48192        1.13031
H         -2.77506       -2.49128        2.16251
C         -4.67560       -1.31542       -1.01556
H         -2.82697       -0.41064       -1.60423
C         -5.31516       -2.05274       -0.01426
H         -6.36653       -2.29398       -0.13101
C         -5.43349       -0.87382       -2.24086
H         -6.32728       -0.30803       -1.96918
H         -4.82024       -0.24489       -2.88665
H         -5.76280       -1.73438       -2.82831
C         -5.35694       -3.29992        2.17875
H         -6.41293       -3.03540        2.24190
H         -5.30105       -4.36621        1.94177
H         -4.91224       -3.15976        3.16475
C          5.24976       -0.01094        2.33466
H          5.76922       -0.69783        3.00389
H          5.98095        0.72870        1.99632
H          4.49161        0.51815        2.91345
C          5.48759       -3.70369       -1.09061
H          6.42655       -3.39158       -1.55484
H          5.73609       -4.43549       -0.31934
H          4.89114       -4.20581       -1.85246
