73
E:\Data\PythonProjects\short_bridge\out\l_24.out	Energy: -1355733.3222018
N          0.89438        0.96985        0.56607
N          1.30394       -1.71221       -0.43045
N          0.76349       -1.26624        2.10861
O          0.38474        2.46860       -1.36044
P         -0.49083        1.76874       -0.13756
P          0.35291       -0.66142        0.54373
C          2.14718        1.70683        0.20851
H          2.31515        2.44807        0.98812
C          1.81931        2.38047       -1.17002
H          2.19965        3.40196       -1.17969
C          2.52373        1.52505       -2.23776
H          1.82937        0.78533       -2.64589
H          2.88243        2.12771       -3.07262
C          3.63492        0.86233       -1.45896
C          3.39909        0.92758       -0.08327
C          4.32069        0.42570        0.82830
H          4.14969        0.50494        1.89564
C          5.48294       -0.16875        0.34592
H          6.21776       -0.55755        1.03947
C          5.71638       -0.24570       -1.02655
H          6.63096       -0.69867       -1.38850
C          4.79735        0.27113       -1.93648
H          4.99848        0.22502       -2.99995
C         -1.05947        3.23592        0.90416
C          0.10396        4.11940        1.37347
H          0.69187        4.50549        0.54021
H          0.76299        3.59554        2.06665
H         -0.30419        4.98149        1.90718
C         -1.99420        4.05521       -0.00790
H         -2.39801        4.89537        0.56178
H         -2.84319        3.47124       -0.36860
H         -1.46455        4.45862       -0.87160
C         -1.82806        2.68584        2.11489
H         -2.23680        3.52118        2.68854
H         -1.18299        2.11140        2.78204
H         -2.66064        2.04602        1.81858
C          0.99320       -1.98538       -1.76988
H          0.11596       -1.55631       -2.22239
C          1.94758       -2.81838       -2.26880
H          1.97487       -3.21426       -3.27109
C          2.88629       -3.07836       -1.22278
H          3.76129       -3.70472       -1.28536
C          2.48466       -2.39401       -0.11690
H          2.91950       -2.32205        0.86255
C          0.57512       -2.59302        2.50796
H          0.44971       -3.37803        1.78228
C          0.65037       -2.64418        3.86944
H          0.57895       -3.53786        4.46793
C          0.86735       -1.31584        4.34297
H          0.99180       -1.01120        5.36942
C          0.91341       -0.48926        3.25834
H          1.05617        0.57333        3.18569
Rh        -1.74781       -0.18295       -0.28507
C         -3.91945        0.52130       -0.71341
C         -3.27909        0.28505       -1.90645
C         -2.54362       -2.30487       -0.71214
C         -2.92089       -1.93222        0.55901
H         -3.91529        1.54211       -0.34990
C         -4.90542       -0.40590       -0.03105
H         -2.83988        1.13873       -2.41326
C         -3.36515       -0.96546       -2.74532
C         -3.42716       -2.28616       -1.94552
H         -1.63785       -2.89444       -0.80028
H         -2.29918       -2.27617        1.38041
C         -4.25235       -1.36776        0.98466
H         -5.46361       -0.96446       -0.78136
H         -5.64050        0.20296        0.49759
H         -4.23536       -0.89599       -3.40972
H         -2.49444       -0.98428       -3.40397
H         -3.11366       -3.09800       -2.60345
H         -4.45486       -2.51084       -1.66248
H         -4.94074       -2.19249        1.20725
H         -4.10339       -0.84442        1.93143
