68
E:\Data\PythonProjects\short_bridge\out\l_3.out	Energy: -1063811.7940967
C         -0.01127       -1.96654        0.76589
H         -0.30563       -2.95421        0.41001
H          0.46420       -2.07666        1.74196
C         -1.91316       -0.68262        2.65806
H         -2.20619       -1.68009        2.98419
H         -2.75715       -0.00434        2.78572
H         -1.09086       -0.32899        3.27925
C          0.87936       -1.73476       -2.03320
H          1.16243       -2.78762       -2.03801
H          1.48088       -1.19815       -2.76604
H         -0.16597       -1.64359       -2.32572
C         -1.39997        2.86802        0.01309
H         -2.37554        2.42458       -0.14992
C         -0.86861        2.74760        1.28049
H         -1.48164        2.25637        2.02888
C          0.30353        3.51070        1.84552
H         -0.04141        4.47109        2.24869
H          0.68473        2.94918        2.70130
C          1.45290        3.74713        0.84385
H          2.36824        3.93720        1.40671
H          1.26967        4.64783        0.25889
C          1.69690        2.57423       -0.08737
H          2.57106        1.97704        0.14538
C          1.14426        2.41401       -1.34064
H          1.64428        1.73042       -2.01966
C          0.12427        3.30816       -1.99997
H          0.63159        4.13883       -2.50622
H         -0.36023        2.73072       -2.79045
C         -0.95544        3.86107       -1.04461
H         -0.60798        4.77637       -0.56620
H         -1.82580        4.14611       -1.63779
P         -1.36832       -0.68202        0.89135
P          1.11092       -0.98106       -0.36017
Rh        -0.00734        1.06607        0.05230
C         -2.80648       -1.36407       -0.10191
C         -3.36651       -2.68953        0.44372
C         -3.92719       -0.32404       -0.28106
H         -2.36707       -1.55362       -1.08855
C         -4.48152       -3.22982       -0.46434
H         -3.77761       -2.52805        1.44492
H         -2.57611       -3.43801        0.54370
C         -5.05181       -0.87037       -1.17303
H         -4.34409       -0.05947        0.69716
H         -3.52426        0.59291       -0.71594
C         -5.60015       -2.20153       -0.65230
H         -4.87955       -4.15351       -0.03800
H         -4.05816       -3.49417       -1.43976
H         -5.85162       -0.12952       -1.24272
H         -4.66609       -1.00768       -2.18945
H         -6.35616       -2.58961       -1.33831
H         -6.10617       -2.03727        0.30573
C          2.87630       -1.36473        0.13839
C          3.17009       -2.86817        0.28700
C          3.89272       -0.69993       -0.80920
H          2.96942       -0.89392        1.12426
C          4.61058       -3.09874        0.76982
H          3.03639       -3.36696       -0.67842
H          2.47010       -3.33437        0.98462
C          5.33107       -0.93433       -0.32464
H          3.78551       -1.12295       -1.81351
H          3.70053        0.37220       -0.89667
C          5.63223       -2.42547       -0.15063
H          4.80339       -4.17215        0.83323
H          4.71633       -2.70302        1.78598
H          6.03039       -0.48436       -1.03303
H          5.47793       -0.41692        0.62990
H          6.64082       -2.56068        0.24588
H          5.61633       -2.91541       -1.13072
