93
E:\Data\PythonProjects\short_bridge\out\l_32a.out	Energy: -1332221.3415505
Rh         1.57832       -0.38769       -0.57567
P         -0.67006        0.05513        0.28855
P          1.72399       -0.37792        1.78509
C         -1.96099       -1.37170        0.26203
C         -1.27791       -2.62752        0.85941
H         -0.36462       -2.85282        0.29932
H         -0.99285       -2.44604        1.89788
C         -0.04532        0.15175        2.06802
H         -0.07137        1.18562        2.40760
H         -0.59564       -0.44906        2.79110
C         -2.62904       -4.14122       -0.63001
H         -3.29501       -5.00773       -0.66472
H         -1.74375       -4.39820       -1.22062
C         -1.68426        4.68206        0.65608
H         -1.10402        4.72994        1.58339
H         -2.04716        5.69449        0.45873
C          2.84521        0.74851        2.84054
C         -2.36297       -1.70566       -1.19652
H         -1.47191       -1.94666       -1.77918
H         -2.83984       -0.85165       -1.67671
C         -2.23149       -3.83867        0.82248
H         -1.71390       -4.70036        1.25305
C         -0.27527        2.78401       -0.19712
H          0.32574        2.81480        0.71441
H          0.38755        2.45014       -0.99816
C         -2.28921        1.79175       -1.33119
H         -1.69561        1.42305       -2.17295
H         -3.14902        1.12814       -1.22960
C         -3.32783       -2.90960       -1.22527
H         -3.60317       -3.10572       -2.26486
C         -2.86882        3.71759        0.81743
H         -3.50003        4.04155        1.64909
C         -1.45381        1.78972       -0.02907
C         -4.18771       -2.29030        1.04899
H         -5.07767       -2.04805        1.63567
C         -0.79718        4.20162       -0.50323
H          0.06033        4.87059       -0.61621
C         -2.34763        2.29667        1.12994
H         -3.19615        1.63248        1.28787
H         -1.78753        2.32514        2.06802
C          3.73536       -0.12836       -1.16679
H          4.16167        0.44071       -0.34915
C         -1.61177        4.17420       -1.80584
H         -0.98070        3.85532       -2.64178
H         -1.97094        5.17834       -2.04720
C          3.86656        0.52279       -2.53190
H          4.29003       -0.18972       -3.23947
H          4.59003        1.33645       -2.45925
C         -3.69216        3.69168       -0.48062
H         -4.55605        3.02877       -0.36982
H         -4.08534        4.68921       -0.69491
C          2.36379        0.77585        4.29963
H          1.34179        1.14756        4.39282
H          3.00577        1.44775        4.87548
H          2.41743       -0.20440        4.77463
C          1.88684       -2.04379        2.57644
H          1.23998       -2.75050        2.06394
H          1.61901       -2.01227        3.63263
H          2.91331       -2.39424        2.47934
C         -2.80027        3.21499       -1.63851
H         -3.38182        3.18023       -2.56345
C         -4.58769       -2.58393       -0.40647
H         -5.28554       -3.42497       -0.44198
H         -5.10878       -1.72303       -0.83708
C          4.28195        0.20061        2.78017
H          4.37211       -0.78059        3.24714
H          4.94440        0.87801        3.32452
H          4.65877        0.13114        1.75842
C         -3.48615       -3.51756        1.65030
H         -4.16479       -4.37485        1.65297
H         -3.21427       -3.32674        2.69359
C         -3.23879       -1.07223        1.07814
H         -3.76443       -0.21379        0.65877
H         -2.98735       -0.82466        2.11396
C          2.34739       -2.06301       -3.14553
H          1.88862       -2.93870       -3.60780
H          2.95757       -1.60116       -3.92123
C          1.24598       -1.10902       -2.72552
H          0.25316       -1.53870       -2.68633
C          2.81541        2.16920        2.25831
H          3.10081        2.18729        1.20555
H          3.51825        2.79915        2.80904
H          1.83163        2.63121        2.35216
C          3.49504       -1.47183       -0.93361
H          3.78966       -1.86586        0.03363
C          2.53892        1.09464       -3.07126
H          2.38689        2.09398       -2.65757
H          2.60500        1.22868       -4.15818
C          3.23118       -2.53313       -1.97233
H          2.74489       -3.37373       -1.47221
H          4.18265       -2.92331       -2.35504
C          1.32578        0.26543       -2.73280
H          0.38983        0.81244       -2.73480
