94
E:\Data\PythonProjects\short_bridge\out\l_36.out	Energy: -1859547.2395641
P         -0.56649       -0.04019       -0.27718
P          1.92334       -0.70986       -0.68582
O         -1.61590        0.36921       -1.48204
O         -1.58979       -0.64835        0.85782
O          2.79107       -1.92305        0.00975
O          2.59681       -0.75211       -2.17562
N          0.33778       -1.27621       -1.02760
C         -2.69970        1.19385       -1.13788
C         -2.64669        2.52893       -1.57570
H         -1.80532        2.84908       -2.17612
C         -3.66825        3.37910       -1.25119
H         -3.65417        4.40585       -1.59643
C         -4.74588        2.93949       -0.44395
C         -5.76830        3.83333       -0.03878
H         -5.72911        4.85878       -0.38684
C         -6.77946        3.41830        0.78755
H         -7.55274        4.11058        1.09534
C         -6.80428        2.08692        1.25110
H         -7.59106        1.76967        1.92401
C         -5.84100        1.19015        0.86209
H         -5.87634        0.17570        1.23216
C         -4.79224        1.57595       -0.01069
C         -3.76189        0.66793       -0.43362
C         -3.79793       -0.78605       -0.12042
C         -4.89922       -1.62482       -0.51001
C         -5.95653       -1.16473       -1.33523
H         -5.94377       -0.14656       -1.69597
C         -6.98844       -1.99553       -1.69381
H         -7.77937       -1.62186       -2.33198
C         -7.02775       -3.33186       -1.24643
H         -7.85329       -3.97169       -1.53099
C         -6.01118       -3.81882       -0.46747
H         -6.01944       -4.84992       -0.13438
C         -4.92065       -2.99419       -0.09485
C         -3.83808       -3.51078        0.65758
H         -3.86885       -4.54302        0.98467
C         -2.75453       -2.72889        0.94799
H         -1.90797       -3.11485        1.49991
C         -2.74064       -1.38650        0.52963
C          2.95859       -2.07110        1.39379
C          1.89127       -2.37324        2.22596
H          0.89164       -2.46263        1.82363
C          2.11524       -2.57236        3.58556
H          1.28160       -2.81139        4.23656
C          3.40610       -2.48241        4.10406
C          4.47427       -2.18496        3.25515
H          5.47297       -2.12966        3.66749
C          4.24950       -1.98034        1.90274
H          5.07288       -1.76138        1.23536
C          3.91561       -0.33650       -2.43904
C          4.11202        0.89930       -3.03635
H          3.26245        1.53528       -3.24873
C          5.39960        1.30026       -3.37749
H          5.55520        2.26261       -3.85227
C          6.48227        0.45586       -3.13004
C          6.26867       -0.79144       -2.54064
H          7.11597       -1.44286       -2.37266
C          4.98513       -1.19256       -2.20189
H          4.80966       -2.16525       -1.76406
C         -0.16158       -2.39454       -1.89635
H         -1.20005       -2.53390       -1.59118
C          0.59503       -3.69086       -1.61607
H          0.55161       -3.96443       -0.56151
H          1.64244       -3.61578       -1.90997
H          0.14281       -4.49767       -2.19459
C         -0.13966       -2.01096       -3.37630
H         -0.69511       -1.08988       -3.54931
H         -0.60768       -2.80567       -3.96060
H          0.88151       -1.87804       -3.73221
Rh         1.22404        1.15548        0.47881
C          3.09446        1.80846        1.68429
C          3.08842        2.47902        0.48495
C          0.30047        3.15095        1.16519
C          0.22947        2.24792        2.20242
H          3.66313        0.88668        1.73121
C          2.66526        2.37522        3.02313
H          3.68571        2.06094       -0.31935
C          2.57918        3.87514        0.22774
C          1.31719        4.26828        1.02694
H         -0.57714        3.23629        0.53343
H         -0.70479        1.70968        2.32664
C          1.18201        2.11571        3.36324
H          2.88383        3.44197        3.05673
H          3.27883        1.91639        3.79982
H          3.38086        4.59749        0.42601
H          2.36466        3.95735       -0.83997
H          0.83814        5.10545        0.51678
H          1.59215        4.63765        2.01430
H          0.86555        2.78776        4.17078
H          1.07905        1.10369        3.75977
O          3.69500       -2.66934        5.42170
H          2.90492       -2.92647        5.91115
O          7.76657        0.78270       -3.43980
H          7.80401        1.63953       -3.88069
