92
E:\Data\PythonProjects\short_bridge\out\l_39.out	Energy: -1895677.0090444
P         -1.28942       -0.39743       -0.04107
P          1.28941       -0.39756        0.04156
O         -2.16933       -0.04009       -1.35372
O         -2.15767        0.23173        1.19004
O          2.16976       -0.04059        1.35400
O          2.15734        0.23180       -1.18969
C         -2.84413        1.20017       -1.46155
C         -2.37634        2.07200       -2.45608
H         -1.54676        1.76561       -3.07846
C         -2.98440        3.28739       -2.60770
H         -2.64586        3.97262       -3.37511
C         -4.03773        3.68266       -1.74797
C         -4.62119        4.96989       -1.85304
H         -4.26919        5.63642       -2.63142
C         -5.59691        5.37433       -0.98046
H         -6.03113        6.36233       -1.06559
C         -6.02414        4.50572        0.04455
H         -6.77552        4.83901        0.74943
C         -5.49377        3.24566        0.16331
H         -5.83038        2.60041        0.96167
C         -4.50061        2.78224       -0.73628
C         -3.91484        1.47326       -0.63967
C         -4.39949        0.45466        0.33156
C         -5.76123       -0.00269        0.35872
C         -6.70935        0.36411       -0.62968
H         -6.40619        1.01094       -1.44021
C         -8.00052       -0.09755       -0.57709
H         -8.70429        0.19098       -1.34771
C         -8.42085       -0.94692        0.46704
H         -9.44577       -1.29394        0.49964
C         -7.52655       -1.34072        1.42749
H         -7.83406       -2.00740        2.22445
C         -6.18014       -0.89968        1.39288
C         -5.23931       -1.34899        2.35131
H         -5.57020       -2.00705        3.14561
C         -3.92521       -0.97724        2.26724
H         -3.18685       -1.32069        2.97982
C         -3.52697       -0.10256        1.24234
C          2.84458        1.19966        1.46192
C          2.37707        2.07128        2.45676
H          1.54768        1.76475        3.07933
C          2.98517        3.28664        2.60846
H          2.64686        3.97171        3.37612
C          4.03826        3.68209        1.74852
C          4.62175        4.96929        1.85369
H          4.26997        5.63567        2.63231
C          5.59722        5.37392        0.98092
H          6.03147        6.36190        1.06613
C          6.02417        4.50553       -0.04439
H          6.77535        4.83896       -0.74941
C          5.49376        3.24549       -0.16327
H          5.83015        2.60041       -0.96186
C          4.50085        2.78189        0.73650
C          3.91504        1.47294        0.63977
C          4.39940        0.45453       -0.33181
C          5.76114       -0.00280       -0.35947
C          6.70956        0.36382        0.62871
H          6.40664        1.01049        1.43946
C          8.00071       -0.09783        0.57564
H          8.70472        0.19056        1.34610
C          8.42074       -0.94700       -0.46878
H          9.44565       -1.29401       -0.50176
C          7.52614       -1.34062       -1.42903
H          7.83341       -2.00715       -2.22621
C          6.17974       -0.89959       -1.39393
C          5.23862       -1.34872       -2.35216
H          5.56927       -2.00664       -3.14668
C          3.92454       -0.97699       -2.26762
H          3.18598       -1.32031       -2.98005
C          3.52662       -0.10250       -1.24244
Rh        -0.00008       -2.29368        0.00012
C         -1.49680       -3.98176        0.48686
C         -1.42674       -3.83539       -0.87933
C          1.49658       -3.98185       -0.48647
C          1.42654       -3.83536        0.87971
H         -2.29477       -3.44891        0.99319
C         -0.80282       -5.05392        1.30503
H         -2.18744       -3.22155       -1.35173
C         -0.58500       -4.63642       -1.83969
C          0.80257       -5.05407       -1.30454
H          2.29455       -3.44905       -0.99287
H          2.18726       -3.22151        1.35205
C          0.58477       -4.63627        1.84013
H         -0.72649       -5.96906        0.71916
H         -1.43734       -5.29582        2.15894
H         -1.14290       -5.52782       -2.15240
H         -0.45563       -4.03717       -2.74323
H          1.43709       -5.29608       -2.15842
H          0.72620       -5.96915       -0.71857
H          1.14263       -5.52767        2.15293
H          0.45543       -4.03693        2.74362
O          0.00003        0.66904        0.00054
