54
E:\Data\PythonProjects\short_bridge\out\l_4.out	Energy: -917259.4464021
C         -2.66293        0.04793       -0.00781
H         -3.31268       -0.26522        0.80976
H         -3.29228        0.38559       -0.83150
C         -1.82870       -1.58237       -2.31587
H         -2.84060       -1.97453       -2.43179
H         -1.11958       -2.29339       -2.73752
H         -1.73820       -0.64705       -2.86703
C         -1.78110        1.63766        2.31037
H         -2.77850        2.06609        2.42355
H         -1.04836        2.32045        2.73823
H         -1.72739        0.69734        2.85782
C          2.12406       -1.59479        0.08920
H          1.58431       -2.49218        0.36918
C          1.99158       -1.17033       -1.21557
H          1.39026       -1.78486       -1.87778
C          2.83788       -0.14248       -1.92375
H          3.72910       -0.62486       -2.34417
H          2.26729        0.22354       -2.78014
C          3.25890        1.05627       -1.04724
H          3.51530        1.88914       -1.70391
H          4.16736        0.82268       -0.49311
C          2.17959        1.51818       -0.08624
H          1.67296        2.43428       -0.36761
C          2.02866        1.09866        1.21816
H          1.44782        1.73418        1.87878
C          2.83611        0.04147        1.92850
H          3.74281        0.49200        2.35112
H          2.25080       -0.30411        2.78343
C          3.21656       -1.17155        1.05306
H          4.13429       -0.97051        0.50138
H          3.44138       -2.01297        1.71039
P         -1.44245       -1.27391       -0.53423
P         -1.39808        1.32282        0.52918
Rh         0.48124       -0.00875       -0.00057
C         -1.96712       -2.85190        0.33881
H         -3.03060       -2.95807        0.09730
C         -1.81155       -2.72844        1.85733
H         -0.76666       -2.58441        2.13933
H         -2.39200       -1.90291        2.27278
H         -2.16471       -3.64287        2.33808
C         -1.21664       -4.07212       -0.20723
H         -1.56548       -4.97172        0.30369
H         -1.38002       -4.22247       -1.27461
H         -0.14130       -3.99670       -0.03199
C         -1.86119        2.92245       -0.33932
H         -2.92196        3.06460       -0.10445
C         -1.07224        4.11295        0.21803
H          0.00121        3.99978        0.05161
H         -1.38431        5.02643       -0.29207
H         -1.23929        4.26493        1.28460
C         -1.69972        2.80126       -1.85742
H         -0.65812        2.62544       -2.13348
H         -2.30338        1.99666       -2.28082
H         -2.02042        3.72884       -2.33574
