103
E:\Data\PythonProjects\short_bridge\out\l_40.out	Energy: -2028227.6567010
P         -1.31070       -0.37322       -0.03815
P          1.31071       -0.37317        0.03865
O         -2.26943       -0.12836       -1.34066
O         -2.25130        0.18946        1.19265
O          2.26958       -0.12825        1.34104
O          2.25111        0.18960       -1.19227
N         -0.00001        0.74334        0.00040
C         -3.14846        0.96542       -1.45770
C         -2.87732        1.86294       -2.50360
H         -2.03049        1.67376       -3.14902
C         -3.69038        2.94727       -2.67936
H         -3.50261        3.64334       -3.48773
C         -4.76668        3.19546       -1.79332
C         -5.56543        4.35876       -1.92196
H         -5.35910        5.04137       -2.73787
C         -6.56731        4.62825       -1.02690
H         -7.16787        5.52295       -1.13102
C         -6.80488        3.74360        0.04462
H         -7.57923        3.97280        0.76605
C         -6.06238        2.59806        0.18701
H         -6.25798        1.93857        1.02003
C         -5.03421        2.27223       -0.73357
C         -4.23155        1.08503       -0.61383
C         -4.52108        0.03489        0.39970
C         -5.79209       -0.63170        0.48061
C         -6.80971       -0.45659       -0.49112
H         -6.63261        0.19968       -1.33082
C         -8.00929       -1.11493       -0.38665
H         -8.76756       -0.97013       -1.14595
C         -8.26468       -1.98112        0.69619
H         -9.22016       -2.48474        0.76974
C         -7.29641       -2.19294        1.64226
H         -7.47471       -2.87057        2.46889
C         -6.03860       -1.54591        1.55422
C         -5.01484       -1.80727        2.49749
H         -5.21784       -2.48002        3.32200
C         -3.77836       -1.23816        2.36041
H         -2.97563       -1.43921        3.05773
C         -3.54675       -0.34741        1.29738
C          3.14867        0.96550        1.45789
C          2.87765        1.86310        2.50375
H          2.03088        1.67400        3.14926
C          3.69075        2.94743        2.67934
H          3.50308        3.64357        3.48768
C          4.76698        3.19552        1.79318
C          5.56578        4.35881        1.92167
H          5.35955        5.04148        2.73755
C          6.56758        4.62820        1.02649
H          7.16818        5.52289        1.13049
C          6.80501        3.74347       -0.04500
H          7.57929        3.97259       -0.76652
C          6.06246        2.59795       -0.18724
H          6.25794        1.93840       -1.02024
C          5.03437        2.27221        0.73347
C          4.23165        1.08504        0.61388
C          4.52099        0.03488       -0.39968
C          5.79196       -0.63176       -0.48079
C          6.80973       -0.45673        0.49079
H          6.63278        0.19953        1.33053
C          8.00927       -1.11511        0.38613
H          8.76766       -0.97037        1.14532
C          8.26446       -1.98129       -0.69677
H          9.21991       -2.48494       -0.77048
C          7.29604       -2.19304       -1.64272
H          7.47420       -2.87064       -2.46939
C          6.03827       -1.54596       -1.55448
C          5.01438       -1.80722       -2.49761
H          5.21722       -2.47994       -3.32218
C          3.77793       -1.23806       -2.36034
H          2.97510       -1.43904       -3.05756
C          3.54651       -0.34735       -1.29723
Rh         0.00003       -2.24985        0.00017
C         -1.49137       -3.94078        0.49491
C         -1.42774       -3.79267       -0.87146
C          1.49149       -3.94065       -0.49496
C          1.42786       -3.79284        0.87144
H         -2.28785       -3.41044        1.00557
C         -0.79512       -5.01527        1.30830
H         -2.19068       -3.17847       -1.33953
C         -0.59498       -4.59814       -1.83626
C          0.79525       -5.01498       -1.30858
H          2.28795       -3.41018       -1.00552
H          2.19079       -3.17872        1.33963
C          0.59512       -4.59854        1.83606
H         -0.72200       -5.93006        0.72126
H         -1.42598       -5.25814        2.16484
H         -1.15601       -5.48970       -2.14322
H         -0.47031       -4.00080       -2.74182
H          1.42612       -5.25768       -2.16517
H          0.72214       -5.92989       -0.72173
H          1.15616       -5.49017        2.14281
H          0.47045       -4.00140        2.74175
C         -0.00009        2.18528        0.00022
C         -0.56280        2.87764        1.07175
C          0.56261        2.87750       -1.07139
C         -0.56749        4.26731        1.06220
H         -0.99807        2.32985        1.89573
C          0.56718        4.26717       -1.06208
H          0.99797        2.32961       -1.89526
C         -0.00019        4.96411       -0.00001
H         -1.01148        4.80532        1.89021
H          1.01116        4.80506       -1.89018
H         -0.00023        6.04673       -0.00010
