108
E:\Data\PythonProjects\short_bridge\out\l_41.out	Energy: -2006580.6982100
P          1.27091       -0.16172       -0.13383
P         -1.32090       -0.16975       -0.18599
O          2.10190        0.01017        1.27076
O          2.34645        0.41015       -1.24129
O         -2.42964        0.01701       -1.37836
O         -2.13594        0.40390        1.12851
N         -0.02556        0.96391       -0.24668
C          3.06187        1.00281        1.52069
C          2.78385        1.86390        2.59684
H          1.87506        1.71320        3.16441
C          3.67212        2.85490        2.90850
H          3.47948        3.51656        3.74431
C          4.83836        3.05054        2.12932
C          5.72088        4.12713        2.39361
H          5.50487        4.78104        3.23024
C          6.81558        4.35140        1.60059
H          7.48006        5.18073        1.80698
C          7.06603        3.50760        0.49972
H          7.91557        3.70392       -0.14238
C          6.24227        2.44372        0.22823
H          6.45101        1.81588       -0.62567
C          5.11479        2.16368        1.04104
C          4.22532        1.06198        0.78371
C          4.51924        0.04299       -0.26056
C          5.73908       -0.71910       -0.26841
C          6.66823       -0.68405        0.80207
H          6.46104       -0.06556        1.66325
C          7.81926       -1.43060        0.76568
H          8.50894       -1.39230        1.59955
C          8.11270       -2.24979       -0.34365
H          9.03040       -2.82378       -0.36211
C          7.22740       -2.32675       -1.38666
H          7.43344       -2.96703       -2.23626
C          6.01891       -1.58669       -1.37193
C          5.07434       -1.70935       -2.42023
H          5.30597       -2.34497       -3.26635
C          3.87469       -1.05530       -2.35734
H          3.12970       -1.15047       -3.13640
C          3.60717       -0.21340       -1.26318
C         -3.45093        0.98220       -1.41148
C         -3.47175        1.80110       -2.55428
H         -2.73723        1.63028       -3.32866
C         -4.42742        2.77147       -2.66963
H         -4.46259        3.39885       -3.55199
C         -5.36292        2.98989       -1.62963
C         -6.29715        4.05320       -1.69582
H         -6.30197        4.68511       -2.57607
C         -7.16611        4.29204       -0.66363
H         -7.87118        5.11153       -0.72069
C         -7.12911        3.47599        0.48522
H         -7.79814        3.68394        1.31086
C         -6.25073        2.42492        0.57201
H         -6.23550        1.81763        1.46540
C         -5.35128        2.13277       -0.48453
C         -4.41141        1.04433       -0.42294
C         -4.46540        0.02898        0.66294
C         -5.65190       -0.73610        0.94011
C         -6.79835       -0.70116        0.10662
H         -6.79214       -0.08101       -0.77784
C         -7.91058       -1.45002        0.39959
H         -8.77037       -1.41115       -0.25747
C         -7.94555       -2.27225        1.54422
H         -8.83472       -2.84795        1.76761
C         -6.84737       -2.35047        2.35993
H         -6.85533       -2.99357        3.23207
C         -5.67443       -1.60775        2.07536
C         -4.51688       -1.73401        2.88218
H         -4.55050       -2.37601        3.75416
C         -3.36339       -1.07586        2.55483
H         -2.46025       -1.17703        3.14207
C         -3.35280       -0.22600        1.43450
C         -0.13135        2.42839        0.02415
H          0.33834        2.62750        0.98974
H         -1.19754        2.60895        0.15848
Rh        -0.02773       -2.03977       -0.25123
C          1.43763       -3.72921       -0.85262
C          1.42145       -3.63036        0.51815
C         -1.51306       -3.74172        0.23244
C         -1.49331       -3.54524       -1.12885
H          2.21901       -3.18307       -1.36962
C          0.70492       -4.76679       -1.68167
H          2.20300       -3.03710        0.98209
C          0.61111       -4.45995        1.48142
C         -0.79835       -4.84860        0.98417
H         -2.28617       -3.22411        0.78988
H         -2.26513       -2.90806       -1.54898
C         -0.69808       -4.32055       -2.14857
H          0.64263       -5.70235       -1.12711
H          1.30551       -4.98251       -2.56684
H          1.17305       -5.36569        1.74176
H          0.51981       -3.89152        2.40930
H         -1.40322       -5.11763        1.85158
H         -0.75063       -5.74249        0.36334
H         -1.27541       -5.19651       -2.46983
H         -0.59734       -3.69137       -3.03544
C          0.41114        3.43542       -1.02803
C          1.92573        3.65196       -0.88768
H          2.18902        3.96757        0.12454
H          2.49077        2.75352       -1.12529
H          2.25231        4.43733       -1.57255
C         -0.29841        4.76928       -0.71894
H         -0.11984        5.08786        0.31160
H          0.07618        5.55683       -1.37510
H         -1.37815        4.69322       -0.86779
C          0.07793        2.99976       -2.45908
H         -0.99720        2.88223       -2.59661
H          0.42040        3.75748       -3.16687
H          0.56571        2.05895       -2.71757
