81
E:\Data\PythonProjects\short_bridge\out\l_43.out	Energy: -1408743.1528113
P          1.37478        0.35195        0.07598
P         -1.31910        0.31049        0.05777
N          0.01241        1.36678        0.46087
C          0.08351        2.84549        0.68054
H          1.10368        3.01276        1.04010
C         -0.86660        3.30125        1.79728
H         -0.70983        2.66852        2.67266
H         -1.90210        3.13966        1.48571
C         -0.68201        4.76606        2.20125
H         -1.30958        5.00202        3.06188
H         -0.95601        5.45288        1.39991
H          0.35380        4.97354        2.48218
C         -0.09180        3.64450       -0.61544
H          0.53638        3.24673       -1.41055
H          0.19752        4.68356       -0.45485
H         -1.12622        3.63367       -0.95701
C          2.36611        1.13796       -1.26341
C          3.31834        2.12984       -1.00397
H          3.53017        2.43303        0.01317
C          4.00845        2.72738       -2.05202
H          4.74270        3.49520       -1.84283
C          3.76128        2.33750       -3.36534
H          4.30405        2.80204       -4.17896
C          2.82271        1.34551       -3.63099
H          2.63612        1.03351       -4.65095
C          2.12934        0.74727       -2.58492
H          1.40370       -0.03079       -2.78994
C          2.50881        0.35819        1.52589
C          2.11264        0.82217        2.78099
H          1.13629        1.26735        2.91083
C          2.97460        0.72999        3.86975
H          2.66056        1.10496        4.83587
C          4.23400        0.16108        3.71858
H          4.90288        0.08821        4.56668
C          4.63441       -0.31063        2.47139
H          5.61558       -0.75108        2.34613
C          3.77940       -0.21293        1.38061
H          4.11363       -0.56913        0.41337
C         -2.36221        1.09209       -1.24315
C         -3.38008        2.00903       -0.95683
H         -3.61615        2.26507        0.06743
C         -4.10128        2.59966       -1.98719
H         -4.88673        3.30786       -1.75487
C         -3.81689        2.28247       -3.31272
H         -4.38192        2.74349       -4.11303
C         -2.80904        1.37053       -3.60657
H         -2.58807        1.11763       -4.63591
C         -2.08727        0.77654       -2.57707
H         -1.30455        0.06459       -2.80847
C         -2.41944        0.07727        1.51666
C         -1.87318        0.01957        2.80231
H         -0.82274        0.22431        2.95311
C         -2.66871       -0.30809        3.89287
H         -2.23446       -0.33710        4.88445
C         -4.01641       -0.60591        3.71227
H         -4.63543       -0.86239        4.56262
C         -4.56185       -0.58070        2.43381
H         -5.60720       -0.81956        2.28329
C         -3.77001       -0.24532        1.33970
H         -4.21431       -0.23387        0.35341
Rh         0.06084       -1.50768       -0.40704
C          1.53036       -3.04992       -1.25660
C          1.51670       -3.15487        0.11747
C         -1.39464       -3.25813       -0.15525
C         -1.38743       -2.87366       -1.47854
H          2.30995       -2.43505       -1.69358
C          0.81507       -3.97991       -2.21942
H          2.30036       -2.63973        0.66315
C          0.74031       -4.14864        0.94560
C         -0.67478       -4.46447        0.41633
H         -2.16612       -2.83297        0.47732
H         -2.18207       -2.21054       -1.80540
C         -0.60829       -3.51556       -2.60087
H          0.78496       -4.98541       -1.80033
H          1.40811       -4.05509       -3.13243
H          1.31623       -5.07786        1.03983
H          0.66123       -3.74358        1.95650
H         -1.26952       -4.86230        1.24020
H         -0.63337       -5.25486       -0.33271
H         -1.17563       -4.36261       -3.00641
H         -0.54033       -2.79037       -3.41509
