76
E:\Data\PythonProjects\short_bridge\out\l_44.out	Energy: -1396395.5003453
P         -0.96083       -0.65994        0.28738
P          1.18979        1.10017        0.50982
C         -2.36679        0.13075       -0.59417
C         -2.23301        0.27076       -1.96062
H         -1.33689       -0.09444       -2.44585
C         -3.22797        0.89481       -2.73817
H         -3.09310        0.98518       -3.80830
C         -4.35298        1.38718       -2.13373
H         -5.12270        1.87344       -2.72148
C         -4.53843        1.27543       -0.73333
C         -5.70244        1.79032       -0.11102
H         -6.45003        2.27289       -0.72932
C         -5.88611        1.68213        1.24283
H         -6.77984        2.07870        1.70727
C         -4.90911        1.04416        2.03238
H         -5.06198        0.95080        3.10034
C         -3.76965        0.53255        1.46107
H         -3.05182        0.02776        2.09179
C         -3.53832        0.63152        0.06600
C         -1.63543       -2.10580        1.20989
C         -2.73141       -2.80529        0.69637
H         -3.24175       -2.44680       -0.18858
C         -3.18846       -3.95510        1.33176
H         -4.04385       -4.48371        0.93026
C         -2.55654       -4.41963        2.48016
H         -2.91704       -5.31205        2.97571
C         -1.45841       -3.73363        2.99043
H         -0.96127       -4.09109        3.88352
C         -0.99403       -2.58783        2.35503
H         -0.12943       -2.07798        2.76178
C         -0.32107        0.61309        1.51010
H         -1.01100        1.42104        1.74715
H         -0.00694        0.13032        2.43473
C          2.55415        1.44307        1.70211
C          2.88553        0.47244        2.65508
H          2.32629       -0.45417        2.71297
C          3.94152        0.68049        3.53294
H          4.18247       -0.07256        4.27277
C          4.69140        1.85143        3.45771
H          5.51614        2.01203        4.14033
C          4.38082        2.81018        2.50080
H          4.96312        3.72061        2.43462
C          3.31808        2.60994        1.62413
H          3.08498        3.36871        0.88934
C          0.77445        2.71135       -0.26858
C          0.26447        3.77122        0.48971
H          0.10957        3.66064        1.55635
C         -0.03799        4.98254       -0.11882
H         -0.43289        5.79810        0.47382
C          0.16742        5.14809       -1.48666
H         -0.06845        6.09391       -1.95794
C          0.67362        4.09944       -2.24561
H          0.83246        4.22515       -3.30922
C          0.97417        2.88315       -1.63969
H          1.35666        2.06368       -2.23488
Rh         1.12925       -0.86185       -0.80320
C          3.02437       -0.77461       -2.06287
C          3.34549       -1.25640       -0.81035
C          1.12466       -3.10295       -1.21834
C          0.64241       -2.44461       -2.33037
H          3.17038        0.28804       -2.22666
C          2.86559       -1.61343       -3.31765
H          3.74696       -0.54670       -0.09514
C          3.52444       -2.70196       -0.41697
C          2.52242       -3.67510       -1.07255
H          0.39099       -3.47851       -0.51392
H         -0.43643       -2.39119       -2.43962
C          1.41692       -2.08465       -3.57467
H          3.53990       -2.46845       -3.27342
H          3.19169       -1.02089       -4.17399
H          4.55096       -3.01907       -0.64017
H          3.42464       -2.76347        0.66877
H          2.46391       -4.57649       -0.46030
H          2.88810       -3.99813       -2.04701
H          1.42258       -2.93552       -4.26723
H          0.87015       -1.29057       -4.08863
