80
E:\Data\PythonProjects\short_bridge\out\l_47.out	Energy: -1350841.2707622
P         -0.15147       -1.00075       -0.17630
P         -2.83491       -0.60553       -0.97861
C          0.16701       -2.21545        1.17716
C         -0.38325       -2.00141        2.44230
H         -0.96580       -1.10737        2.63010
C         -0.18414       -2.93080        3.45921
H         -0.61212       -2.75783        4.43876
C          0.56702       -4.07563        3.21794
H          0.72633       -4.79656        4.00986
C          1.12042       -4.29207        1.95826
H          1.71095       -5.17994        1.77014
C          0.92340       -3.36737        0.94001
H          1.37093       -3.53810       -0.03153
C         -1.45694       -1.84947       -1.23095
H         -1.68919       -2.84427       -0.85323
H         -1.19359       -1.94153       -2.28130
C         -4.28475       -1.58924       -0.28984
H         -4.39490       -2.43952       -0.96974
C         -3.97750       -2.12426        1.11206
H         -3.07612       -2.73694        1.14265
H         -4.80698       -2.74711        1.45395
H         -3.85437       -1.30980        1.82848
C         -5.58601       -0.77864       -0.30237
H         -5.52130        0.10013        0.34241
H         -6.40152       -1.39737        0.07799
H         -5.86971       -0.44613       -1.30097
C         -3.36781       -0.06270       -2.70173
H         -4.18112        0.64282       -2.50570
C         -3.90728       -1.20677       -3.56725
H         -4.21181       -0.81490       -4.54041
H         -4.77597       -1.69692       -3.12822
H         -3.14592       -1.96838       -3.75145
C         -2.24388        0.69979       -3.41342
H         -1.41148        0.04362       -3.67599
H         -1.84904        1.51202       -2.80226
H         -2.62318        1.12587       -4.34457
Rh        -1.52419        0.90248        0.29207
C         -0.30205        2.07111        1.83827
C          0.08651        2.45368        0.57263
C         -2.76340        2.79702        0.06033
C         -3.14488        2.14705        1.21743
H          0.29220        1.30427        2.32220
C         -1.21758        2.85844        2.75576
H          0.97441        1.98309        0.16506
C         -0.37022        3.67843       -0.18031
C         -1.86622        4.01879       -0.01011
H         -3.36161        2.61050       -0.82466
H         -4.02913        1.52154        1.16252
C         -2.70472        2.46833        2.62385
H         -1.08741        3.92551        2.57660
H         -0.90597        2.68854        3.78769
H          0.24209        4.53967        0.11510
H         -0.15768        3.51389       -1.23870
H         -2.18008        4.63139       -0.85683
H         -2.01831        4.63445        0.87631
H         -3.33691        3.26581        3.03420
H         -2.89994        1.58887        3.24166
C          1.42009       -0.91199       -1.15697
C          2.61775       -0.41245       -0.55582
C          1.42515       -1.26967       -2.49320
C          3.79765       -0.28375       -1.34922
C          2.68362       -0.04592        0.82672
C          2.58570       -1.14910       -3.26607
H          0.53932       -1.65764       -2.97308
C          5.02102        0.22758       -0.74868
C          3.74178       -0.66263       -2.70558
C          3.82473        0.42622        1.38656
H          1.81090       -0.17042        1.45111
H          2.56710       -1.44194       -4.30802
C          5.02204        0.58336        0.62671
C          6.22264        0.39120       -1.47101
H          4.62133       -0.57696       -3.32654
H          3.84414        0.68854        2.43799
C          6.19934        1.07905        1.22584
C          7.36047        0.87860       -0.86603
H          6.27011        0.13494       -2.51966
C          7.35354        1.22642        0.49370
H          6.17941        1.34203        2.27691
H          8.26761        0.99319       -1.44588
H          8.25312        1.60723        0.96018
