56
E:\Data\PythonProjects\short_bridge\out\l_5.out	Energy: -1059253.3255237
C         -0.17500       -2.04200        0.92189
H          0.40124       -2.09246        1.84664
H         -0.58026       -3.02733        0.69091
C          0.31140       -2.02446       -1.98019
H          0.50807       -3.09664       -1.94783
H          0.85970       -1.58720       -2.81417
H         -0.75310       -1.84691       -2.12994
C         -1.89213       -0.57909        2.86443
H         -2.30715       -1.53229        3.19202
H         -2.64350        0.19824        3.00454
H         -1.01690       -0.33963        3.46819
C          1.87766        2.23758       -0.26564
H          2.68972        1.53123       -0.13515
C          1.16006        2.16340       -1.44021
H          1.48182        1.43208       -2.17537
C          0.18206        3.18263       -1.97040
H          0.72169        3.95880       -2.52704
H         -0.45324        2.68077       -2.70352
C         -0.70977        3.83841       -0.89347
H         -1.60510        4.22880       -1.37981
H         -0.20728        4.70166       -0.45775
C         -1.13747        2.88767        0.20965
H         -2.17354        2.56814        0.17261
C         -0.47032        2.68867        1.40205
H         -1.04127        2.26466        2.22150
C          0.84343        3.30171        1.81965
H          0.66397        4.28933        2.26270
H          1.25623        2.68648        2.62203
C          1.88460        3.41810        0.68697
H          1.73783        4.34149        0.12749
H          2.87626        3.49317        1.13590
P          0.85735       -1.22719       -0.40302
P         -1.40619       -0.63691        1.08322
Rh         0.03089        0.94093        0.08229
C         -2.91990       -1.17107        0.18762
C         -3.62349       -2.31727        0.57571
C         -3.37883       -0.42090       -0.89773
C         -4.76766       -2.70134       -0.11186
H         -3.28680       -2.91760        1.41288
C         -4.52601       -0.80855       -1.58422
H         -2.83601        0.46376       -1.20710
C         -5.22057       -1.94674       -1.19167
H         -5.30718       -3.58846        0.19495
H         -4.87601       -0.22063       -2.42332
H         -6.11382       -2.24761       -1.72424
C          2.60460       -1.76286       -0.21016
C          3.58195       -1.13402       -0.99020
C          2.98284       -2.78353        0.66504
C          4.91202       -1.52547       -0.89975
H          3.31124       -0.34210       -1.67906
C          4.31698       -3.16802        0.75736
H          2.24743       -3.29362        1.27385
C          5.28198       -2.54063       -0.02242
H          5.65937       -1.03593       -1.51129
H          4.59955       -3.96153        1.43757
H          6.31891       -2.84268        0.05081
