99
E:\Data\PythonProjects\short_bridge\out\l_50.out	Energy: -1744673.0273370
C         -3.56850        0.84973       -1.33470
C         -4.71917        1.64237       -1.37328
H         -5.14406        2.05249       -0.47091
C         -5.34215        1.92522       -2.58538
H         -6.23302        2.54053       -2.59568
C         -4.82507        1.42583       -3.77451
H         -5.31127        1.64969       -4.71559
C         -3.68249        0.63111       -3.74830
H         -3.27594        0.23252       -4.66947
C         -3.06526        0.33934       -2.53941
H         -2.18308       -0.29002       -2.52870
C         -3.60365        0.81943        1.77209
C         -2.76159        0.28207        2.94388
H         -1.80482        0.79776        3.02370
H         -2.57267       -0.78943        2.85322
H         -3.30782        0.45181        3.87492
C         -4.93665        0.04630        1.71199
H         -4.79011       -1.02107        1.54679
H         -5.61029        0.41750        0.94137
H         -5.44249        0.15879        2.67377
C         -3.87138        2.31360        2.00162
H         -4.47853        2.41596        2.90524
H         -4.41913        2.78995        1.19090
H         -2.95208        2.86919        2.15940
C         -0.59897        2.60050       -0.08017
H          0.47025        2.48781       -0.27336
C         -1.20926        3.21437       -1.33781
H         -1.06604        2.55179       -2.18912
H         -0.71534        4.16045       -1.56065
H         -2.27708        3.40398       -1.23595
C         -0.70030        3.47319        1.16936
C         -0.07188        3.06508        2.35116
H          0.45181        2.11868        2.37656
C         -0.10228        3.86337        3.48763
H          0.39341        3.52985        4.39114
C         -0.75261        5.09441        3.46386
H         -0.77197        5.71932        4.34786
C         -1.36444        5.51909        2.29172
H         -1.86382        6.47937        2.25586
C         -1.33563        4.71623        1.15353
H         -1.81830        5.07607        0.25552
C          2.23508       -0.62090        1.26020
C          2.31773       -1.49577        2.35863
H          1.53119       -1.47656        3.10159
C          3.39493       -2.33142        2.46976
H          3.48393       -2.99729        3.31966
C          4.39439       -2.35835        1.46647
C          5.47083       -3.27787        1.53127
H          5.53565       -3.94141        2.38556
C          6.40408       -3.34106        0.52998
H          7.21948       -4.05092        0.58661
C          6.29221       -2.48793       -0.58694
H          7.01672       -2.55866       -1.38857
C          5.27383       -1.57181       -0.67137
H          5.20440       -0.93060       -1.53805
C          4.30304       -1.45972        0.35606
C          3.21839       -0.51751        0.29947
C          3.12330        0.52537       -0.75667
C          4.17924        1.47624       -0.98243
C          5.29940        1.59378       -0.12092
H          5.37211        0.95291        0.74570
C          6.28542        2.51769       -0.36170
H          7.12568        2.59287        0.31715
C          6.21401        3.37459       -1.47871
H          7.00431        4.09193       -1.65974
C          5.13482        3.30621       -2.32023
H          5.05778        3.97323       -3.17076
C          4.08941        2.37799       -2.08947
C          2.94452        2.34419       -2.92197
H          2.89285        3.01064       -3.77447
C          1.90435        1.50241       -2.64268
H          1.01274        1.47929       -3.25453
C          1.99452        0.62899       -1.54306
N         -1.05776        1.17839        0.12490
O          1.09945        0.19874        1.18700
O          0.88188       -0.19520       -1.32179
P         -2.64037        0.36853        0.19131
P         -0.04390       -0.17928        0.04759
Rh        -1.62368       -1.78852        0.10071
C         -0.48653       -3.50355       -0.86374
C         -0.36274       -3.61314        0.50742
C         -3.27750       -3.37215        0.53391
C         -3.37066       -2.98339       -0.77947
H          0.31218       -2.98957       -1.38662
C         -1.40494       -4.33585       -1.74037
H          0.54436       -3.21710        0.95246
C         -1.16191       -4.50691        1.42200
C         -2.64898       -4.65552        1.03750
H         -3.90599       -2.85315        1.24818
H         -4.09375       -2.21234       -1.02338
C         -2.79582       -3.70539       -1.97264
H         -1.50731       -5.33455       -1.31636
H         -0.92390       -4.47046       -2.71039
H         -0.69284       -5.49737        1.47350
H         -1.09371       -4.09455        2.43132
H         -3.20238       -4.98625        1.91805
H         -2.77318       -5.44090        0.29288
H         -3.50059       -4.47783       -2.30494
H         -2.73266       -2.98951       -2.79424
