73
E:\Data\PythonProjects\short_bridge\out\l_51b.out	Energy: -1311082.2479901
C         -2.53701        1.00245       -0.39455
H         -2.60754        1.86611        0.27031
C         -3.72586        0.09908       -0.06377
C         -4.73326       -0.16104       -0.99546
H         -4.67204        0.24401       -1.99558
C         -5.84069       -0.93603       -0.65523
H         -6.61177       -1.11819       -1.39349
C         -5.96080       -1.46463        0.62352
H         -6.82357       -2.06202        0.88980
C         -4.96288       -1.21430        1.56222
H         -5.04507       -1.61923        2.56323
C         -3.86169       -0.44069        1.22000
H         -3.09034       -0.27077        1.95907
C         -2.52263        1.53499       -1.83000
H         -1.66650        2.18952       -1.97724
H         -3.42268        2.11992       -2.02396
H         -2.46144        0.72707       -2.55762
C         -0.07651        1.60817        2.43277
C         -1.40936        2.31416        2.73421
H         -1.46111        2.50317        3.80981
H         -2.27001        1.69937        2.47730
H         -1.51572        3.27701        2.23881
C          1.10034        2.49608        2.87787
H          1.08023        3.48071        2.41278
H          2.06916        2.04315        2.65994
H          1.04506        2.63708        3.95997
C         -0.04464        0.28095        3.21399
H          0.90285       -0.24420        3.09114
H         -0.84312       -0.39587        2.90720
H         -0.17900        0.49229        4.27758
C          0.50219        2.66558       -0.40873
C          1.27155        2.49432       -1.56674
H          1.67096        1.51399       -1.79913
C          1.51732        3.56140       -2.42187
H          2.11108        3.41011       -3.31458
C          1.00605        4.82114       -2.12752
H          1.20028        5.65546       -2.78956
C          0.24426        5.00537       -0.97863
H         -0.15707        5.98318       -0.74389
C         -0.00875        3.93705       -0.12504
H         -0.60886        4.11306        0.75413
C         -2.32031       -3.04818       -0.70242
H         -3.30467       -2.62172       -0.51811
H         -2.33034       -4.11456       -0.48756
C         -1.81183       -2.73557       -2.11007
H         -1.08970       -3.47673       -2.45840
H         -2.61763       -2.64478       -2.83554
N         -1.23047        0.35855       -0.04010
O         -1.36374       -2.43105        0.19334
O         -1.15464       -1.45012       -2.01867
P          0.21858        1.14872        0.60551
P         -0.58774       -1.15113       -0.49411
Rh         1.56380       -0.73606        0.06796
C          3.76756        0.03426        0.09328
C          3.45947       -0.45059        1.33907
C          2.46817       -2.81779       -0.07704
C          2.52127       -2.21568       -1.31938
H          3.63972        1.09958       -0.06475
C          4.57003       -0.69895       -0.96364
H          3.14728        0.27199        2.08471
C          3.77353       -1.81856        1.89071
C          3.63879       -2.97339        0.87533
H          1.61797       -3.46062        0.12352
H          1.73562       -2.46210       -2.02664
C          3.71034       -1.52735       -1.94337
H          5.31138       -1.33421       -0.48001
H          5.13477        0.03669       -1.53867
H          4.78409       -1.81666        2.31773
H          3.09828       -2.00150        2.72918
H          3.51084       -3.90371        1.43066
H          4.56113       -3.08868        0.30644
H          4.34073       -2.26991       -2.44830
H          3.33527       -0.87297       -2.73317
