87
E:\Data\PythonProjects\short_bridge\out\l_52.out	Energy: -1551795.9896411
C          2.84005        0.90961        1.18323
C          3.93016        1.78460        1.18426
H          4.22153        2.31302        0.29046
C          4.66410        1.99740        2.34753
H          5.50578        2.67827        2.32942
C          4.31942        1.34495        3.52500
H          4.89145        1.51470        4.42837
C          3.23894        0.46736        3.53504
H          2.96701       -0.05009        4.44662
C          2.51159        0.24574        2.37338
H          1.67909       -0.44800        2.38888
C          2.53336        1.17334       -1.89742
C          1.60192        0.68792       -3.02331
H          0.61299        1.14047       -2.95236
H          1.48832       -0.39793       -3.01989
H          2.03161        0.98034       -3.98446
C          3.90984        0.49540       -2.05188
H          3.84791       -0.59050       -1.97903
H          4.63931        0.84134       -1.32137
H          4.29993        0.73181       -3.04457
C          2.68124        2.69775       -2.00340
H          3.17642        2.92665       -2.95103
H          3.28557        3.13529       -1.21132
H          1.71756        3.19786       -2.00752
C         -0.35456        2.55022        0.43827
H         -1.39036        2.33990        0.71535
C          0.33717        3.07104        1.69587
H          0.31803        2.31396        2.47766
H         -0.18879        3.95161        2.06573
H          1.37669        3.34493        1.52026
C         -0.43356        3.55282       -0.71058
C         -1.16075        3.22802       -1.86122
H         -1.63059        2.25621       -1.93786
C         -1.29526        4.13955       -2.90072
H         -1.86521        3.86951       -3.78132
C         -0.71412        5.40160       -2.80707
H         -0.82321        6.11445       -3.61468
C         -0.00470        5.74219       -1.66279
H          0.44247        6.72435       -1.57234
C          0.13159        4.82608       -0.62204
H          0.68653        5.12173        0.25753
C         -3.13569       -0.68362       -0.96751
C         -3.32546       -1.39883       -2.14235
H         -2.59795       -1.30449       -2.93810
C         -4.45283       -2.19740       -2.28381
H         -4.60949       -2.75225       -3.19987
C         -4.05476       -0.72247        0.08609
C         -3.89259        0.09284        1.31090
C         -3.67511        1.57686        3.69827
H         -3.58816        2.13560        4.62119
C         -2.55528        0.96317        3.15434
H         -1.59261        1.01785        3.64482
C         -2.66712        0.24624        1.97013
N          0.16858        1.19496        0.03389
O         -2.02297        0.16251       -0.89467
O         -1.51512       -0.41691        1.52756
P          1.78043        0.50918       -0.27868
P         -0.74612       -0.23042        0.08164
Rh         0.90570       -1.71422       -0.30004
C         -0.01158       -3.59050        0.59302
C         -0.29201       -3.56709       -0.75936
C          2.58169       -3.13154       -1.08887
C          2.81028       -2.87344        0.23968
H         -0.76973       -3.18901        1.25608
C          1.04943       -4.44427        1.26400
H         -1.26661       -3.19027       -1.05287
C          0.43934       -4.30753       -1.85070
C          1.96762       -4.39546       -1.65542
H          3.09024       -2.50097       -1.80884
H          3.51361       -2.08392        0.48218
C          2.42144       -3.74872        1.40498
H          1.15496       -5.38538        0.72486
H          0.69613       -4.70910        2.26173
H          0.02180       -5.31653       -1.95655
H          0.22880       -3.79986       -2.79480
H          2.42869       -4.59660       -2.62388
H          2.22242       -5.24303       -1.02032
H          3.20179       -4.50188        1.57085
H          2.41732       -3.12509        2.30083
C         -4.90298        1.46596        3.05308
H         -5.78005        1.95044        3.46191
C         -5.00342        0.73366        1.87999
H         -5.95902        0.66038        1.37716
C         -5.17718       -1.54647       -0.08168
H         -5.89575       -1.62034        0.72429
C         -5.37688       -2.27444       -1.24574
H         -6.25337       -2.90185       -1.34302
