80
E:\Data\PythonProjects\short_bridge\out\l_58.out	Energy: -1303747.2930951
Rh         1.41844       -0.51180       -0.52202
P          1.20948        1.59632        0.67383
P         -0.79928       -0.37370        0.26258
C          3.25475       -0.22145       -1.81648
H          3.33814        0.85621       -1.89911
C          2.96486       -0.92736       -3.11756
H          3.89366       -1.03418       -3.69186
H          2.32267       -0.27458       -3.71297
C          2.28247       -2.30312       -2.96263
H          1.77057       -2.54115       -3.89646
H          3.02953       -3.08515       -2.82648
C          1.27353       -2.35523       -1.82950
H          0.23468       -2.39966       -2.13695
C          1.54480       -2.73457       -0.52613
H          0.70332       -3.05696        0.07789
C          2.88869       -3.11227        0.04530
H          3.08694       -4.17246       -0.15709
H          2.82256       -3.02531        1.13195
C          4.06537       -2.25375       -0.46184
H          4.88194       -2.32176        0.25899
H          4.45692       -2.65667       -1.39559
C          3.70646       -0.79273       -0.64922
H          4.08700       -0.11845        0.10839
C          1.55667        2.69736        3.34054
H          0.58268        2.30178        3.63174
H          1.42309        3.72902        3.02594
H          2.17669        2.70930        4.24123
C          2.25559        1.83181        2.27913
C          3.62220        2.44752        1.93705
H          4.26539        2.39263        2.81905
H          3.54360        3.49864        1.66260
H          4.13157        1.91892        1.12954
C          2.47794        0.42681        2.86909
H          2.97472       -0.24290        2.16851
H          1.54477       -0.04494        3.17874
H          3.10406        0.51453        3.76080
C          0.99112        3.23562       -0.31213
C          2.29205        3.57159       -1.06138
H          3.13720        3.74743       -0.39949
H          2.13541        4.48619       -1.63904
H          2.56325        2.78728       -1.76789
C          0.57902        4.42213        0.57082
H         -0.29184        4.20367        1.19135
H          0.31244        5.26363       -0.07440
H          1.38886        4.75833        1.21663
C         -0.10445        2.98638       -1.36284
H          0.12805        2.13224       -1.99994
H         -0.17718        3.86878       -2.00361
H         -1.08816        2.82691       -0.92189
C         -0.51176        1.15637        1.30413
H         -0.47853        0.90027        2.36128
H         -1.26614        1.92938        1.17058
C         -1.46688       -1.72137        1.33444
C         -1.05591       -1.87828        2.66113
H         -0.38236       -1.16739        3.12123
C         -1.50937       -2.95373        3.41705
H         -1.19159       -3.05674        4.44706
C         -2.36591       -3.89355        2.85291
H         -2.71828       -4.73036        3.44237
C         -2.76813       -3.75248        1.52906
H         -3.43696       -4.47818        1.08367
C         -2.32149       -2.67510        0.77175
H         -2.65652       -2.57087       -0.25244
C         -2.14567        0.01957       -0.93167
C         -3.44580        0.47535       -0.52962
C         -1.84840       -0.11432       -2.27217
C         -3.85368        0.63130        0.81928
C         -4.39509        0.79537       -1.55505
C         -2.79400        0.18801       -3.27155
H         -0.85985       -0.44288       -2.56497
C         -5.11062        1.08518        1.13627
H         -3.17784        0.36767        1.62011
C         -5.68319        1.26068       -1.19192
C         -4.03735        0.63748       -2.91696
H         -2.52813        0.06852       -4.31402
C         -6.03604        1.40776        0.12411
H         -5.39698        1.18930        2.17540
H         -6.38928        1.49722       -1.97900
H         -4.77033        0.87977       -3.67746
H         -7.02343        1.76311        0.38957
