72
E:\Data\PythonProjects\short_bridge\out\l_6.out	Energy: -1112406.1627048
Rh        -1.18819       -0.64115        0.03890
P         -1.48575        1.64119       -0.53124
P          0.69588        0.54525        0.86460
C          0.11577        2.22024        0.25099
H          0.78807        2.67295       -0.47716
H         -0.02717        2.92912        1.06597
C         -0.46347       -2.79802       -0.04975
H          0.59923       -2.68936       -0.23270
C         -1.22298       -3.57559       -1.10858
H         -1.84656       -4.33130       -0.63200
H         -0.50199       -4.12367       -1.71733
C          0.74858        0.73507        2.70511
H         -0.25303        0.97936        3.05716
H          1.43806        1.52337        3.00711
H          1.05048       -0.20283        3.16932
C         -3.43145       -2.71030        0.82399
H         -4.35018       -2.59653        1.40168
H         -3.56442       -3.61206        0.22714
C         -3.28921       -1.50831       -0.09154
H         -3.91996       -0.66366        0.16008
C         -0.90481       -2.53727        1.23060
H         -0.15328       -2.28553        1.97173
C         -2.07156       -2.68512       -2.04081
H         -1.43382       -2.28680       -2.83307
H         -2.83008       -3.29509       -2.54712
C         -2.25473       -2.88257        1.80763
H         -2.41831       -2.24190        2.67699
H         -2.24108       -3.90968        2.19316
C         -2.73282       -1.51672       -1.35373
H         -2.99952       -0.70112       -2.01800
C          2.48679        0.31594        0.30284
C          3.05333       -0.98419        0.92440
C          3.38003        1.50349        0.73153
C          2.51867        0.19092       -1.23871
H          3.04734       -0.92010        2.01598
H          2.43419       -1.84218        0.64692
C          4.49911       -1.21051        0.43646
H          3.38131        1.61123        1.81932
H          3.00162        2.44116        0.31394
C          4.82626        1.27115        0.24290
C          3.96564       -0.03811       -1.71875
H          2.12583        1.10138       -1.70282
H          1.87923       -0.63577       -1.56195
C          5.37519       -0.02247        0.86752
H          4.87795       -2.13202        0.88566
C          4.51133       -1.33413       -1.09618
H          5.43861        2.12128        0.55402
C          4.84008        1.15218       -1.29001
H          3.96407       -0.12314       -2.80851
H          6.40802       -0.18356        0.54724
H          5.39220        0.06031        1.95874
H          5.52965       -1.51892       -1.44846
H          3.90773       -2.19074       -1.41318
H          5.86454        1.01189       -1.64505
H          4.47212        2.07696       -1.74604
C         -1.28033        2.03602       -2.32744
H         -2.15809        1.71232       -2.88526
H         -1.12421        3.10261       -2.48922
H         -0.41876        1.48644       -2.70501
C         -2.87619        2.77288        0.10017
C         -3.05024        2.51833        1.60566
H         -3.26508        1.46985        1.81896
H         -2.16654        2.80924        2.17746
H         -3.88489        3.11574        1.98021
C         -2.53523        4.25014       -0.14733
H         -2.45165        4.48458       -1.20920
H         -3.33576        4.87451        0.25794
H         -1.60972        4.55307        0.34556
C         -4.17197        2.40732       -0.64339
H         -4.99258        3.01489       -0.25435
H         -4.10383        2.60557       -1.71409
H         -4.44810        1.36101       -0.50393
