85
E:\Data\PythonProjects\short_bridge\out\l_62.out	Energy: -1504414.3830755
P         -0.48458       -1.16984        0.18012
P          0.62834        1.28303        0.25969
N         -0.72808        0.39264        0.92487
C         -0.50337       -2.45089        1.50300
C         -0.64980       -3.79399        1.13377
C         -0.54706       -4.80104        2.08631
C         -0.29931       -4.48294        3.41808
C         -0.14903       -3.15209        3.79242
C         -0.24155       -2.14274        2.83999
C         -1.90261       -1.60309       -0.90881
C         -1.78820       -1.32962       -2.27523
C         -2.83500       -1.62059       -3.14220
C         -4.00495       -2.18944       -2.65063
C         -4.12640       -2.46595       -1.29189
C         -3.08154       -2.17755       -0.42340
C          0.04480        2.69938       -0.76587
C         -0.35005        3.93522       -0.24021
C         -0.80626        4.94256       -1.08124
C         -0.87175        4.73218       -2.45591
C         -0.47612        3.51053       -2.98927
C         -0.01855        2.50107       -2.14926
C          1.65490        2.01408        1.60535
C          2.34645        3.21437        1.40953
C          3.24043        3.67661        2.37181
C          3.46018        2.94703        3.53366
C          2.79388        1.73937        3.72489
C          1.90808        1.27115        2.76361
C         -1.88468        0.75962        1.79778
C         -1.59505        1.97954        2.67874
C         -3.22014        0.92923        1.08007
C         -3.35617        1.57719       -0.14596
C         -4.61406        1.76892       -0.70927
C         -5.75548        1.32280       -0.05189
C         -5.63117        0.67666        1.17351
C         -4.37246        0.48001        1.72985
H         -0.85645       -4.06002        0.10467
H         -0.66610       -5.83483        1.78716
H         -0.22543       -5.26807        4.15975
H          0.04003       -2.89707        4.82769
H         -0.11800       -1.11394        3.14742
H         -0.87520       -0.89028       -2.65842
H         -2.73555       -1.40889       -4.19947
H         -4.82061       -2.41956       -3.32459
H         -5.03754       -2.90574       -0.90671
H         -3.18978       -2.40119        0.62923
H         -0.29774        4.12340        0.82320
H         -1.11045        5.89348       -0.66231
H         -1.22653        5.52030       -3.10807
H         -0.51852        3.34427       -4.05836
H          0.29331        1.55095       -2.56557
H          2.19619        3.79640        0.51095
H          3.76205        4.61146        2.20936
H          4.15160        3.31142        4.28277
H          2.96957        1.15824        4.62158
H          1.41682        0.32028        2.91509
H         -2.00672       -0.09162        2.47191
H         -2.48168        1.93020       -0.67386
H         -4.70131        2.27140       -1.66477
H         -6.73332        1.47676       -0.49065
H         -6.51216        0.32317        1.69497
H         -4.28683       -0.02864        2.68466
H         -2.43949        2.12832        3.35164
H         -1.49663        2.88658        2.08447
H         -0.69657        1.84787        3.27932
Rh         1.54853       -0.59205       -0.77326
C          3.26048        0.23252       -2.06427
C          3.71930        0.06099       -0.77690
C          2.57656       -2.62551       -0.98681
C          1.88782       -2.35749       -2.14958
H          2.91404        1.22549       -2.33020
C          3.53240       -0.69981       -3.23081
H          3.72711        0.93386       -0.13299
C          4.50344       -1.11048       -0.23975
C          4.07498       -2.48445       -0.79676
H          2.06658       -3.22300       -0.23897
H          0.90246       -2.79969       -2.25551
C          2.45901       -1.79340       -3.42760
H          4.51629       -1.15320       -3.11262
H          3.58701       -0.10389       -4.14345
H          5.57320       -0.95267       -0.42640
H          4.38839       -1.11294        0.84615
H          4.40832       -3.25707       -0.10189
H          4.58393       -2.68876       -1.73847
H          2.86976       -2.60653       -4.03905
H          1.63032       -1.37999       -4.00716
