88
E:\Data\PythonProjects\short_bridge\out\l_64a.out	Energy: -1549983.1655946
P         -0.63007        1.22851        0.14111
P          0.59240       -1.14953        0.10023
N         -1.60115        1.82374        1.49934
N         -1.52733        1.14045        2.69200
N          0.74792        0.45056        0.81019
C          1.97828       -1.37771       -2.29196
H          1.05316       -1.01382       -2.72267
C          0.21738        3.94502        0.13103
H          0.05548        3.95434        1.20128
C          1.78912        1.07088        1.69916
H          1.47808        2.11675        1.75898
C          0.47850       -2.42445        1.41900
C          3.18705        1.08108        1.07642
C          1.73737        0.51729        3.12242
H          0.72128        0.58888        3.49952
H          2.38891        1.10680        3.76889
H          2.05935       -0.52271        3.17387
C          0.98579       -3.71389        1.22170
H          1.56462       -3.95024        0.33946
C          2.07227       -1.55268       -0.90781
C         -0.29556       -2.15678        2.55465
H         -0.71678       -1.17033        2.70424
C          3.27055       -2.01963       -0.35774
H          3.36930       -2.15385        0.71045
C         -0.07806        2.80196       -0.61966
C          0.11596        2.81752       -2.00388
H         -0.10875        1.93388       -2.58948
C          4.35069       -2.30643       -1.18192
H          5.27606       -2.66191       -0.74704
C          0.00582       -4.43143        3.30520
H         -0.17136       -5.20647        4.04028
C          0.75149       -4.70951        2.16552
H          1.15590       -5.70142        2.00741
C          4.24743       -2.13423       -2.55948
H          5.09153       -2.36303       -3.19797
C          4.30320        0.61319        1.77188
H          4.19405        0.17880        2.75559
C          3.38887        1.65011       -0.18491
H          2.54455        2.02873       -0.74509
C         -2.54669        1.56709        3.41758
C          3.06140       -1.66675       -3.11417
H          2.97743       -1.53165       -4.18524
C          4.65971        1.74044       -0.73616
H          4.79043        2.18840       -1.71358
C         -2.71975        2.64040        1.46806
C         -3.14386        3.49453        0.31733
H         -2.50374        4.36942        0.19536
H         -4.15978        3.84473        0.49517
H         -3.14009        2.95601       -0.63208
C         -0.51799       -3.15517        3.49458
H         -1.10634       -2.93702        4.37723
C          5.76426        1.26752       -0.03259
H          6.75718        1.34489       -0.45768
C          0.60083        3.96020       -2.63049
H          0.74399        3.96773       -3.70363
C         -3.32334        2.50305        2.69196
H         -4.21062        3.01716        3.02438
C          0.89790        5.09221       -1.87815
H          1.27527        5.98241       -2.36535
C          0.70676        5.08288       -0.49900
H          0.93736        5.96368        0.08686
C          5.58043        0.70443        1.22281
H          6.43095        0.33988        1.78574
C         -2.76183        1.07681        4.81213
H         -2.02099        0.32110        5.06966
H         -3.75707        0.64148        4.92529
H         -2.68027        1.89449        5.53183
Rh        -1.40676       -0.62444       -0.98828
C         -3.62753       -0.15374       -1.31625
C         -2.92109        0.25330       -2.42670
C         -1.76031       -2.43918       -2.36084
C         -2.24939       -2.72932       -1.10701
H         -3.82374        0.59081       -0.55295
C         -4.45741       -1.41893       -1.21020
H         -2.64872        1.30242       -2.48547
C         -2.75990       -0.50390       -3.72237
C         -2.59080       -2.03109       -3.56345
H         -0.75391       -2.77840       -2.58060
H         -1.60566       -3.29600       -0.44272
C         -3.67937       -2.62353       -0.64047
H         -4.87921       -1.66335       -2.18470
H         -5.30795       -1.21873       -0.55657
H         -3.61183       -0.29422       -4.38110
H         -1.88426       -0.10010       -4.23584
H         -2.10831       -2.41809       -4.46251
H         -3.56500       -2.51677       -3.51606
H         -4.21080       -3.55363       -0.87826
H         -3.66601       -2.55863        0.44938
