96
E:\Data\PythonProjects\short_bridge\out\l_65b.out	Energy: -1907873.4566530
P          1.31673       -0.21543       -0.02757
P         -1.30268       -0.20777       -0.04532
O          2.26162        0.01501        1.29347
O          2.25951        0.40022       -1.23065
O         -2.28560        0.00131       -1.34036
O         -2.20513        0.43529        1.17450
N          0.01040        0.88490       -0.07010
C          3.05948        1.16235        1.45603
C          2.71028        2.01370        2.51847
H          1.87621        1.74424        3.15281
C          3.43863        3.15178        2.72870
H          3.19229        3.81204        3.55140
C          4.50523        3.49790        1.86362
C          5.21476        4.71352        2.02810
H          4.94768        5.36218        2.85399
C          6.20726        5.07331        1.15463
H          6.73908        6.00705        1.28587
C          6.52534        4.23054        0.07014
H          7.29194        4.53048       -0.63333
C          5.87090        3.03730       -0.10728
H          6.12670        2.41023       -0.94900
C          4.85510        2.61926        0.78941
C          4.14262        1.38044        0.63169
C          4.51913        0.37305       -0.39703
C          5.83197       -0.20745       -0.46513
C          6.82183        0.02147        0.52402
H          6.59085        0.65442        1.36856
C          8.06306       -0.55640        0.43052
H          8.79930       -0.37180        1.20277
C          8.38970       -1.39159       -0.65750
H          9.37672       -1.83161       -0.72180
C          7.45105       -1.65431       -1.62048
H          7.68480       -2.30936       -2.45144
C          6.15287       -1.09089       -1.54484
C          5.16247       -1.40619       -2.50692
H          5.42057       -2.05587       -3.33448
C          3.89051       -0.91749       -2.38535
H          3.11434       -1.15931       -3.09955
C          3.58590       -0.05621       -1.31676
C         -3.10456        1.13440       -1.49852
C         -2.80433        1.96432       -2.59292
H         -1.99089        1.68874       -3.25104
C         -3.55234        3.08985       -2.80189
H         -3.34349        3.73326       -3.64797
C         -4.59090        3.44445       -1.90649
C         -5.31901        4.64878       -2.07209
H         -5.08870        5.28146       -2.92111
C         -6.28354        5.01792       -1.17153
H         -6.82995        5.94302       -1.30399
C         -6.55313        4.19639       -0.05812
H         -7.29723        4.50409        0.66586
C         -5.87961        3.01410        0.12178
H         -6.09812        2.40369        0.98592
C         -4.89211        2.58650       -0.80139
C         -4.16061        1.35865       -0.64167
C         -4.49143        0.37120        0.42146
C         -5.79582       -0.21888        0.54768
C         -6.82059       -0.02214       -0.41237
H         -6.62420        0.59244       -1.27893
C         -8.05249       -0.60829       -0.26331
H         -8.81600       -0.44847       -1.01430
C         -8.33445       -1.42012        0.85447
H         -9.31456       -1.86696        0.96252
C         -7.36138       -1.65182        1.79089
H         -7.56076       -2.28895        2.64443
C         -6.07183       -1.07923        1.65802
C         -5.04653       -1.36345        2.59286
H         -5.27049       -1.99557        3.44364
C         -3.78389       -0.86738        2.41641
H         -2.98138       -1.08679        3.10839
C         -3.52355       -0.02882        1.31839
C          0.01555        2.35813       -0.04724
H          0.98340        2.71224       -0.39608
H         -0.16757        2.72861        0.96088
H         -0.75269        2.73995       -0.71696
Rh         0.00067       -2.09746       -0.02742
C          1.45421       -3.78998       -0.58810
C          1.46529       -3.63574        0.77979
C         -1.46731       -3.76790        0.55801
C         -1.47670       -3.63296       -0.81210
H          2.22452       -3.26530       -1.14318
C          0.71420       -4.86923       -1.35586
H          2.25489       -3.02357        1.20409
C          0.68267       -4.43491        1.79076
C         -0.73736       -4.84295        1.34118
H         -2.23319       -3.22912        1.10565
H         -2.26094       -3.01998       -1.24513
C         -0.70178       -4.45395       -1.81157
H          0.67124       -5.77928       -0.75848
H          1.29825       -5.11978       -2.24280
H          1.25404       -5.32982        2.06739
H          0.61236       -3.83565        2.70085
H         -1.32357       -5.07492        2.23175
H         -0.70343       -5.76198        0.75713
H         -1.28177       -5.34711       -2.07563
H         -0.62558       -3.86840       -2.73009
