84
E:\Data\PythonProjects\short_bridge\out\l_7.out	Energy: -1258199.3039493
Rh        -0.00228        1.32994        0.00658
P         -1.19290       -0.55123        0.83548
P          1.14701       -0.61289       -0.72564
C         -2.94096       -1.06120        0.32288
C         -3.07465       -0.92690       -1.21239
H         -2.83755        0.09532       -1.52214
H         -2.36302       -1.58948       -1.71536
C         -0.00016       -1.81871        0.13643
H          0.49434       -2.38062        0.92834
H         -0.45795       -2.53077       -0.54931
C         -5.50845       -0.34733       -0.97371
H         -6.52565       -0.58477       -1.29658
H         -5.31521        0.68730       -1.27504
C         -3.96534       -0.11820        1.00026
H         -3.75809        0.92302        0.73755
H         -3.89612       -0.19759        2.08868
C         -4.50546       -1.29561       -1.65164
H         -4.57597       -1.19376       -2.73773
C         -5.39435       -0.48865        0.55315
H         -6.09892        0.18913        1.04175
C         -4.69240       -2.88395        0.28345
H         -4.89579       -3.91619        0.57951
C          1.56949        2.96471       -0.16109
H          2.49781        2.42772       -0.00524
C          1.29465        4.07823        0.83291
H          1.01786        4.98666        0.29866
H          2.22385        4.31094        1.35570
C          0.93547       -0.99779       -2.52392
H         -0.10833       -0.83814       -2.79119
H          1.21083       -2.02809       -2.74954
H          1.54471       -0.32355       -3.12426
C         -5.69767       -1.93938        0.96327
H         -6.71723       -2.20540        0.67156
H         -5.64238       -2.04555        2.05120
C         -4.80623       -2.74776       -1.24380
H         -5.81102       -3.02869       -1.57059
H         -4.11040       -3.43263       -1.73915
C         -3.26052       -2.51817        0.73145
H         -3.18145       -2.63979        1.81482
H         -2.54840       -3.21202        0.27513
C         -1.21443        4.08660       -0.91903
H         -2.13619        4.33046       -1.44985
H         -0.90770        5.00408       -0.41764
C         -1.52376        3.01858        0.11365
H         -2.46771        2.50449       -0.02437
C          0.96188        2.81390       -1.39041
H          1.47689        2.20451       -2.12598
C          0.22074        3.72098        1.88234
H          0.68725        3.15871        2.69428
H         -0.16931        4.63832        2.34082
C         -0.15382        3.65726       -1.95482
H         -0.63894        3.08045       -2.74539
H          0.26432        4.54428       -2.44698
C         -0.92095        2.89286        1.34791
H         -1.45456        2.32694        2.10450
C          2.92272       -1.09312       -0.28759
C          3.90460       -0.23169       -1.11917
C          3.20069       -2.58641       -0.57836
C          3.16380       -0.81878        1.21578
H          3.75930       -0.41155       -2.18789
H          3.72419        0.83269       -0.94258
C          5.35817       -0.58020       -0.73848
H          3.04357       -2.80792       -1.63718
H          2.51675       -3.22307       -0.00953
C          4.65730       -2.92995       -0.19889
C          4.61863       -1.16698        1.58802
H          2.48198       -1.41895        1.82687
H          2.95830        0.23098        1.44433
C          5.61987       -2.06695       -1.03175
H          6.03266        0.03905       -1.33526
C          5.57983       -0.30040        0.75721
H          4.83125       -3.98800       -0.41065
C          4.87880       -2.65470        1.29762
H          4.76567       -0.96618        2.65242
H          6.65525       -2.31985       -0.78807
H          5.48724       -2.27216       -2.09864
H          6.61503       -0.52234        1.02997
H          5.41720        0.76045        0.97344
H          5.90177       -2.91843        1.57922
H          4.21400       -3.28094        1.90131
C         -1.09642       -0.80325        2.66696
H         -1.74601       -0.09354        3.17759
H         -1.38150       -1.81703        2.94799
H         -0.07211       -0.61639        2.98768
