81
E:\Data\PythonProjects\short_bridge\out\l_73.out	Energy: -1502429.5663266
P         -1.12410        0.91480        0.12533
P          1.14379       -0.54959        0.21068
N          0.61196        1.12258        0.25976
C         -1.97651        1.45414        1.67274
C         -2.57618        2.70965        1.81709
H         -2.55176        3.42416        1.00554
C         -3.20961        3.05133        3.00612
H         -3.67122        4.02567        3.10632
C         -3.25085        2.14708        4.06345
H         -3.74542        2.41658        4.98818
C         -2.66240        0.89400        3.92673
H         -2.70011        0.18372        4.74313
C         -2.03576        0.54676        2.73554
H         -1.59750       -0.43726        2.62464
C         -1.79837        1.99699       -1.19812
C         -0.98166        2.65058       -2.12191
H          0.09499        2.62530       -2.02331
C         -1.55411        3.37022       -3.16815
H         -0.91154        3.88538       -3.87122
C         -2.93511        3.43102       -3.31045
H         -3.37450        3.99066       -4.12655
C         -3.75372        2.77188       -2.39675
H         -4.83080        2.81737       -2.49830
C         -3.19150        2.05716       -1.34698
H         -3.84426        1.56135       -0.63844
C          2.00256       -0.89234        1.80166
C          3.28085       -0.39376        2.08641
H          3.82424        0.18243        1.34885
C          3.86817       -0.64101        3.32176
H          4.85485       -0.24879        3.53387
C          3.19442       -1.39167        4.28097
H          3.65812       -1.58644        5.23982
C          1.92763       -1.89468        4.00497
H          1.40354       -2.48450        4.74644
C          1.33393       -1.64406        2.77284
H          0.34799       -2.03747        2.55967
C          2.42268       -0.74752       -1.09640
C          2.25636       -0.11205       -2.33131
H          1.45546        0.59946       -2.47436
C          3.13144       -0.37576       -3.37743
H          3.00250        0.13462       -4.32358
C          4.16619       -1.29239       -3.21234
H          4.84382       -1.49972       -4.03103
C          4.32421       -1.94494       -1.99450
H          5.12398       -2.66251       -1.86075
C          3.45780       -1.67701       -0.93955
H          3.59577       -2.19331        0.00103
Rh        -0.95907       -1.38418       -0.26133
C         -3.13724       -2.11539       -0.25879
C         -2.82159       -1.66876       -1.52255
C         -0.45623       -3.37407       -1.27838
C         -0.62875       -3.59801        0.07039
H         -3.62545       -1.40998        0.40539
C         -3.20052       -3.56934        0.17122
H         -3.10840       -0.65480       -1.77883
C         -2.40073       -2.50645       -2.70445
C         -1.47152       -3.68940       -2.36024
H          0.55856       -3.21095       -1.62439
H          0.26776       -3.64683        0.68014
C         -1.87482       -4.11410        0.74834
H         -3.52705       -4.18292       -0.66811
H         -3.97432       -3.67055        0.93400
H         -3.29151       -2.87584       -3.22794
H         -1.89309       -1.84652       -3.41077
H         -0.93290       -3.97853       -3.26411
H         -2.05710       -4.56099       -2.06840
H         -1.88394       -5.21083        0.71848
H         -1.81217       -3.84925        1.80641
C          1.46523        2.23696        0.72792
H          2.03776        1.87813        1.58379
C          2.47417        2.66728       -0.34674
C          0.70053        3.48758        1.16916
H          1.41930        4.25529        1.45981
H          0.08849        3.88870        0.36211
H          0.07330        3.27439        2.03068
C          4.74490        3.23895       -0.71357
H          5.65183        3.24491       -0.11690
H          4.85256        2.58452       -1.57690
H          4.49636        4.24494       -1.04780
O          2.19685        2.96052       -1.48304
O          3.71035        2.73560        0.16589
