69
E:\Data\PythonProjects\short_bridge\out\l_8.out	Energy: -1040635.9542100
C         -0.95883       -2.78098       -0.26682
H         -0.03752       -3.06379       -0.75996
C         -0.87438       -2.47373        1.07279
H          0.09884       -2.57361        1.53992
C         -2.02255       -2.34170        2.04119
H         -1.67134       -1.76766        2.90153
H         -2.29093       -3.33056        2.43326
C         -3.27186       -1.65463        1.45216
H         -3.86348       -1.24853        2.27413
H         -3.91124       -2.38543        0.95761
C         -2.94661       -0.52633        0.49029
H         -3.12270        0.46912        0.88052
C         -2.82667       -0.64655       -0.88283
H         -2.96092        0.25530       -1.47126
C         -2.90468       -1.92036       -1.68646
H         -2.42983       -1.73363       -2.65227
H         -3.95316       -2.15399       -1.90996
C         -2.22866       -3.13442       -1.01678
H         -2.92447       -3.63527       -0.34435
H         -1.98176       -3.86419       -1.78960
Rh        -0.75577       -0.50784       -0.05392
P          1.64809       -0.11397       -0.00568
C          1.43521        1.73794       -0.29055
H          1.66813        2.28104        0.62362
H          2.04136        2.16077       -1.09100
P         -0.40937        1.76988       -0.59772
C          2.57648       -0.23725        1.68403
C          3.09789       -1.66612        1.90736
H          3.44275       -1.75646        2.94050
H          3.94504       -1.90245        1.26485
H          2.32862       -2.42500        1.75553
C          1.53803        0.08766        2.77327
H          2.01715        0.00874        3.75257
H          0.69212       -0.59857        2.75403
H          1.14846        1.10179        2.68592
C          3.74413        0.75499        1.81163
H          4.17194        0.65831        2.81323
H          3.42910        1.79345        1.70290
H          4.54276        0.56615        1.09882
C          2.72493       -0.74268       -1.47389
C          2.02918       -0.29940       -2.77240
H          2.54958       -0.75180       -3.62007
H          2.06410        0.78059       -2.91695
H          0.98899       -0.62932       -2.80830
C          4.15299       -0.17819       -1.45523
H          4.64821       -0.44362       -2.39322
H          4.75210       -0.59640       -0.64786
H          4.17575        0.91011       -1.37523
C          2.77427       -2.28029       -1.46984
H          3.37345       -2.61217       -2.32160
H          1.78215       -2.71539       -1.58508
H          3.22975       -2.69344       -0.57301
C         -1.12489        3.27290        0.33298
C         -2.60696        3.42202       -0.05288
H         -3.04377        4.24216        0.52195
H         -3.18745        2.52544        0.17004
H         -2.73905        3.66373       -1.10797
C         -0.36181        4.55340       -0.04074
H         -0.77006        5.39163        0.52999
H         -0.46257        4.80540       -1.09692
H          0.70138        4.48860        0.19787
C         -1.01060        3.02383        1.84407
H         -1.49617        3.84181        2.38166
H          0.02765        2.99626        2.17856
H         -1.49128        2.09192        2.14519
C         -0.61279        2.20134       -2.38641
H         -0.12928        3.14830       -2.62646
H         -1.67278        2.27202       -2.62621
H         -0.18164        1.41423       -2.99913
