64
E:\Data\PythonProjects\short_bridge\out\l_9b.out	Energy: -1203037.0850756
Rh         0.00445        0.90371       -0.23367
P         -1.12692       -0.88510        0.86501
P          1.21029       -1.07157       -0.65972
C         -1.65054        2.40614       -0.43068
H         -2.54219        1.79921       -0.32153
C         -1.48337        3.05214       -1.78403
H         -2.09722        3.96007       -1.83980
H         -1.89563        2.36801       -2.52885
C         -0.02362        3.38625       -2.16093
H          0.04339        3.46429       -3.24729
H          0.25493        4.36624       -1.77352
C          0.97605        2.34742       -1.68826
H          1.37996        1.70529       -2.46372
C          1.65800        2.37735       -0.48650
H          2.56137        1.78041       -0.41500
C          1.49839        3.39572        0.61630
H          2.12394        4.27186        0.40347
H          1.90244        2.95527        1.53033
C          0.04295        3.84337        0.87435
H         -0.02132        4.24063        1.88884
H         -0.22326        4.66805        0.21339
C         -0.96995        2.72323        0.72656
H         -1.37051        2.32773        1.65374
C          0.29181       -2.08364        0.61368
H          0.87790       -2.08501        1.53148
H          0.06377       -3.11342        0.34281
C          3.01657       -1.33225       -0.45174
C          3.63517       -1.00827        0.77309
C          5.01306       -1.15221        0.92212
H          5.49379       -0.91451        1.85981
C          5.78230       -1.60990       -0.14317
C          5.19052       -1.92695       -1.35748
H          5.78915       -2.28290       -2.18527
C          3.81512       -1.78655       -1.50375
C          0.79231       -1.87012       -2.27045
H          1.22799       -1.30759       -3.09520
H          1.13806       -2.90387       -2.30891
H         -0.29072       -1.84629       -2.38584
C         -2.64107       -1.67047        0.16467
C         -2.61817       -2.88595       -0.51905
C         -3.87473       -1.00284        0.30336
C         -3.77808       -3.44027       -1.05082
C         -5.03924       -1.55841       -0.22113
C         -4.98446       -2.77303       -0.89787
H         -3.73516       -4.38681       -1.57299
H         -5.98833       -1.05464       -0.11005
C         -1.39922       -0.86604        2.69432
H         -2.22217       -0.19485        2.92826
H         -1.63525       -1.86878        3.05182
H         -0.49134       -0.50606        3.17734
H          6.85185       -1.71721       -0.01431
H          3.36692       -2.03804       -2.45499
H         -5.89575       -3.19437       -1.30279
H         -1.68893       -3.42460       -0.64008
C         -5.06166        0.88711        1.21439
H         -4.78708        1.77738        1.77408
H         -5.54044        1.18103        0.27753
H         -5.74965        0.28116        1.80787
O         -3.83762        0.18662        0.97267
O          2.80833       -0.56735        1.76487
C          3.37607       -0.17813        3.01757
H          3.86556       -1.02202        3.50907
H          4.08906        0.63970        2.89081
H          2.54287        0.16124        3.62755
