48
Energy: -1980059.1699780
Ni     -2.471470   -0.331480   -0.709820
P      -0.274690   -0.477240    0.053760
C       0.622450   -1.983430   -0.522730
C       1.532970   -2.700550    0.254980
C       0.410160   -2.392920   -1.843590
C       2.202850   -3.800460   -0.268280
H       1.718050   -2.410560    1.278180
C       1.093520   -3.479050   -2.373820
H      -0.302920   -1.865480   -2.459990
C       1.989080   -4.189990   -1.583360
H       2.897710   -4.349260    0.354130
H       0.916650   -3.778150   -3.398540
H       2.512700   -5.045850   -1.989630
C      -0.225240   -0.578550    1.885830
C       0.256950    0.453980    2.686900
C      -0.830660   -1.676490    2.510070
C       0.166830    0.393440    4.072960
H       0.707360    1.301080    2.200920
C      -0.915560   -1.743900    3.893280
H      -1.238130   -2.483400    1.916100
C      -0.417100   -0.709420    4.680500
H       0.551760    1.207230    4.674080
H      -1.383710   -2.601550    4.359290
H      -0.494180   -0.761630    5.758840
C       0.902100    0.871010   -0.632500
H       0.730760    0.626310   -1.684500
C       0.428160    2.313490   -0.476560
C      -0.471410    2.837900   -1.407170
C       0.896580    3.166910    0.525580
C      -0.909510    4.155360   -1.329690
H      -0.830000    2.209790   -2.211820
C       0.459180    4.482240    0.610750
H       1.625050    2.822070    1.249250
C      -0.450890    4.983080   -0.313830
H      -1.606220    4.531030   -2.067950
H       0.835670    5.119200    1.400910
H      -0.788160    6.009300   -0.247570
C       2.409180    0.720360   -0.444340
C       3.216360    1.027440   -1.546830
C       3.039390    0.330840    0.734750
C       4.600130    0.957410   -1.472490
H       2.750880    1.332670   -2.476630
C       4.426960    0.258020    0.813880
H       2.455290    0.076670    1.607660
C       5.214390    0.570700   -0.285770
H       5.196950    1.200400   -2.342400
H       4.890240   -0.050100    1.742750
H       6.293020    0.509960   -0.221210
