50
Energy: -1886630.0934022
Ni     -2.453400    0.567670   -0.257880
C       1.071710   -0.010160   -0.839470
C       2.463220   -0.609000   -0.655910
H       0.735510   -0.132950   -1.870900
C       1.332900    1.463480   -0.559530
C       2.970310   -1.856720   -0.992320
C       3.341380    0.365740   -0.144040
C       0.527090    2.569290   -0.782520
C       2.641820    1.644460   -0.082850
C       4.309260   -2.152770   -0.742110
H       2.354010   -2.606340   -1.463590
C       4.674220    0.067230    0.118970
C       1.002180    3.838510   -0.459370
H      -0.458290    2.455090   -1.206780
C       3.112750    2.910330    0.251200
C       5.151900   -1.205650   -0.167750
H       4.696650   -3.128680   -1.006110
H       5.339930    0.823280    0.516610
C       2.278100    4.007120    0.073150
H       0.371160    4.701860   -0.627180
H       4.121550    3.046020    0.621140
H       6.187890   -1.452020    0.027400
H       2.629520    4.999640    0.325280
P      -0.464460   -0.701900    0.125450
C      -0.717800   -2.493020   -0.577930
C       0.000580   -0.790380    1.990660
C      -2.183910   -2.913780   -0.355630
H      -2.874030   -2.281770   -0.908780
H      -2.304850   -3.939060   -0.717120
H      -2.475390   -2.901030    0.692930
C      -0.503800   -2.445150   -2.102950
H      -0.830730   -3.396600   -2.531010
H      -1.096960   -1.659950   -2.573300
H       0.535890   -2.301940   -2.389390
C      -1.128880   -1.527100    2.733480
H      -1.162670   -2.590310    2.500400
H      -0.952660   -1.436920    3.808900
H      -2.107000   -1.094760    2.524620
C       0.041370    0.653020    2.527840
H      -0.914210    1.158290    2.405500
H       0.263990    0.616170    3.597990
H       0.811820    1.256370    2.051570
C       1.341130   -1.458470    2.339050
H       1.398120   -2.496090    2.023510
H       2.190210   -0.927310    1.916980
H       1.455370   -1.443310    3.427280
C       0.159420   -3.599780    0.032210
H       0.013380   -4.516900   -0.546720
H       1.219800   -3.372730    0.026860
H      -0.131490   -3.823350    1.057630
