58
Energy: -1983938.4011108
Ni      2.008280   -1.653780   -0.488410
C      -0.985200    0.072920   -1.255720
C      -1.975000    1.222280   -1.180520
H      -0.481230    0.051890   -2.224940
C      -1.888990   -1.136830   -1.087780
C      -1.803630    2.576600   -1.436190
C      -3.254990    0.735480   -0.855560
C      -1.602010   -2.488680   -1.206750
C      -3.200250   -0.723120   -0.795270
C      -2.888890    3.441910   -1.308160
H      -0.847740    2.971940   -1.748880
C      -4.335050    1.601630   -0.719870
C      -2.615910   -3.421420   -0.996930
H      -0.607250   -2.821330   -1.464000
C      -4.209680   -1.656190   -0.579250
C      -4.141930    2.961070   -0.936460
H      -2.755860    4.497760   -1.507210
H      -5.318610    1.223730   -0.469290
C      -3.907030   -3.009440   -0.674440
H      -2.395690   -4.477300   -1.088740
H      -5.220350   -1.337230   -0.355850
H      -4.973850    3.646880   -0.837920
H      -4.682080   -3.747810   -0.512090
P       0.475140    0.033140   -0.010690
C      -0.386450   -0.047300    1.658410
C       0.511580   -0.641220    2.760700
C      -1.063120    1.242640    2.159170
H      -1.176530   -0.782960    1.466530
C      -0.281050   -0.891090    4.048970
H       1.338680    0.041730    2.977100
H       0.964000   -1.571190    2.417090
C      -1.854820    0.987990    3.448940
H      -0.302700    2.003250    2.360040
H      -1.726810    1.655190    1.401000
C      -0.980140    0.376290    4.544210
H       0.387710   -1.283320    4.819720
H      -1.030110   -1.668910    3.862330
H      -2.298740    1.925460    3.794750
H      -2.688510    0.311780    3.229400
H      -1.580840    0.156300    5.430690
H      -0.224930    1.108010    4.854470
C       1.204180    1.751880   -0.152490
C       2.275650    2.035300    0.916840
C       1.793800    1.998220   -1.554030
H       0.383340    2.455150    0.010430
C       2.837760    3.456550    0.783650
H       3.093130    1.317630    0.816230
H       1.866810    1.902830    1.918580
C       2.359330    3.416750   -1.692480
H       2.592820    1.273400   -1.734330
H       1.045800    1.827270   -2.331200
C       3.401200    3.717030   -0.613850
H       3.611120    3.613580    1.540050
H       2.043150    4.181040    0.995970
H       2.794750    3.540510   -2.687440
H       1.542660    4.144440   -1.618360
H       3.746510    4.750710   -0.697450
H       4.278990    3.080950   -0.773450
