44
Energy: -1837372.1990300
Ni     -2.405570    0.537200   -0.060200
C       1.073370   -0.157470   -0.850100
C       2.373670   -0.871750   -0.517120
H       0.813340   -0.288400   -1.902570
C       1.433950    1.296790   -0.604490
C       2.727510   -2.209670   -0.638780
C       3.320350    0.053800   -0.039600
C       0.706640    2.447120   -0.868920
C       2.742390    1.394170   -0.102260
C       4.004690   -2.620180   -0.260550
H       2.035040   -2.941670   -1.029290
C       4.592810   -0.359380    0.342900
C       1.272180    3.688850   -0.586850
H      -0.287490    2.388600   -1.288000
C       3.303650    2.634620    0.184370
C       4.928210   -1.703640    0.235640
H       4.280650   -3.662480   -0.358270
H       5.319070    0.356480    0.707610
C       2.555830    3.781950   -0.053420
H       0.706510    4.590180   -0.785220
H       4.312040    2.710830    0.572120
H       5.915490   -2.038730    0.527390
H       2.978260    4.755000    0.163100
P      -0.499980   -0.776530    0.047210
C      -0.739300   -2.479750   -0.737900
H       0.017620   -3.131680   -0.293340
C       0.147400   -1.154910    1.770370
H       1.114670   -1.640370    1.620520
C      -2.122610   -3.067770   -0.423120
H      -2.903680   -2.517980   -0.948410
H      -2.157750   -4.105300   -0.765360
H      -2.367620   -3.060790    0.635860
C      -0.553160   -2.470280   -2.261410
H      -0.823370   -3.449440   -2.664070
H      -1.206930   -1.735770   -2.736940
H       0.469940   -2.264760   -2.572120
C      -0.743130   -2.112320    2.569010
H      -0.790330   -3.107710    2.129290
H      -0.332920   -2.221910    3.576020
H      -1.760810   -1.730870    2.672640
C       0.369550    0.136530    2.567220
H      -0.579840    0.624010    2.793370
H       0.854450   -0.103350    3.516760
H       1.000020    0.854640    2.046050
