46
Energy: -1979364.4024879
Ni      2.388190   -1.218100   -0.297270
P       0.551790    0.144800    0.055100
C       1.108680    1.890330   -0.117680
C       1.249210    2.749000    0.973930
C       1.535250    2.338340   -1.374450
C       1.779570    4.025530    0.810390
H       0.949610    2.426450    1.961050
C       2.053870    3.614510   -1.538700
H       1.469840    1.687550   -2.237570
C       2.176890    4.465780   -0.444420
H       1.880780    4.674250    1.671480
H       2.370950    3.941270   -2.521100
H       2.587470    5.459470   -0.570400
C      -0.281790    0.057460    1.690250
C      -1.285710    0.946420    2.096750
C       0.102200   -0.958760    2.568290
C      -1.886800    0.811610    3.341060
H      -1.600510    1.749230    1.446430
C      -0.499780   -1.092900    3.814420
H       0.881610   -1.647760    2.274740
C      -1.497140   -0.208640    4.202670
H      -2.662550    1.506630    3.636990
H      -0.186710   -1.888870    4.478050
H      -1.968120   -0.310450    5.172410
C      -0.863820    0.009610   -1.214690
C      -2.014090    0.989620   -1.092050
H      -0.349470    0.115010   -2.173610
C      -1.564540   -1.332590   -1.111790
C      -2.032370    2.371300   -1.229710
C      -3.208870    0.293860   -0.833620
C      -1.058580   -2.614140   -1.266990
C      -2.929990   -1.140690   -0.842770
C      -3.237320    3.053730   -1.072250
H      -1.129720    2.922430   -1.451980
C      -4.408860    0.979370   -0.672600
C      -1.915640   -3.703340   -1.123590
H      -0.015370   -2.772780   -1.500530
C      -3.782390   -2.230220   -0.695070
C      -4.414400    2.364650   -0.786490
H      -3.257740    4.130980   -1.178420
H      -5.329370    0.444390   -0.474210
C      -3.264460   -3.512960   -0.831040
H      -1.527670   -4.706930   -1.242250
H      -4.835790   -2.086020   -0.488950
H      -5.341380    2.911340   -0.666910
H      -3.915710   -4.370830   -0.720280
