%nprocshared=14
%mem=8GB
# nmr=giao b3lyp/def2TZVP pop=nbo scfcyc=200

Ligand 10 SPE NoRh 

0  1
P           1.14500         1.51600        -0.06400
P          -1.02700        -0.11800         0.89700
O          -1.55100         2.51400         0.44900
O          -3.23500        -1.72100        -0.75000
C          -1.73200        -0.60200         2.61100
C          -0.56000        -0.69200         3.59900
C          -2.74800         0.44400         3.08700
C          -2.41500        -1.97400         2.48500
C          -0.49700         1.68700         0.93600
C           0.96700         2.41300        -1.76500
C          -2.53800         1.79000        -0.17200
C          -2.44800         0.39800        -0.12700
C           0.53700         3.88400        -1.64500
C          -0.07800         1.62900        -2.58000
C           2.41700         2.37400         1.11700
C           3.80900         2.45800         0.46700
C           1.97700         3.78200         1.54900
C           2.52100         1.47600         2.36400
C          -3.40300        -0.37300        -0.80400
C          -4.44800         0.26600        -1.47300
C          -3.57700         2.44400        -0.82100
C          -4.19400        -2.56200        -1.40200
C          -4.52300         1.65900        -1.46500
C           2.30300         2.33900        -2.52700
H          -5.20000        -0.30200        -1.99900
H          -3.62800         3.52400        -0.82800
H          -5.34200         2.13900        -1.98500
H           0.22400        -1.36700         3.25200
H           3.86400         3.23700        -0.29000
H           4.12600         1.51800         0.01500
H          -0.24200         2.03500         1.93400
H          -0.11000         0.28200         3.79300
H          -3.60600         0.51500         2.41900
H          -3.24900        -1.95200         1.78500
H          -0.36500         4.00800        -1.04900
H          -1.08400         1.72300        -2.18000
H           0.98800         3.80000         2.00800
H          -4.21400        -2.37500        -2.47800
H           2.13100         2.68900        -3.54800
H           2.69400         1.32400        -2.59700
H          -3.86500        -3.58100        -1.21600
H          -5.19200        -2.41900        -0.98100
H          -0.92900        -1.07100         4.55600
H          -2.30800         1.43800         3.18600
H           1.32400         4.50800        -1.22300
H           2.68400         4.15400         2.29600
H           3.07200         2.97400        -2.09600
H          -3.11900         0.15400         4.07400
H           0.33200         4.26700        -2.64900
H           1.97700         4.49000         0.72300
H           3.28000         1.89200         3.03200
H           1.59100         1.43200         2.93100
H           2.81200         0.45500         2.11500
H          -1.72400        -2.75400         2.16200
H          -2.80200        -2.26500         3.46400
H          -0.09300         2.03100        -3.59700
H           0.16800         0.56700        -2.64200
H           4.53900         2.71000         1.24000

