%nprocshared=14
%mem=8GB
# nmr=giao b3lyp/def2TZVP pop=nbo scfcyc=200

Ligand 12 SPE NoRh 

0  1
P          -1.36200        -0.41900         0.15200
P           1.28000        -0.11800         1.17500
O           0.24900        -2.63900         1.04400
C           1.95000         0.28500         2.91600
C           0.86800         1.10500         3.63500
C           2.24700        -1.00700         3.68700
C           3.23000         1.12300         2.77200
C          -0.16700        -1.31300         1.35300
C           1.51900        -2.68900         0.53000
C           2.24500        -1.49800         0.47100
C           4.07400        -2.71200        -0.53600
C           2.04400        -3.89700         0.09000
C           3.32600        -3.88500        -0.43800
H           5.06600        -2.74900        -0.96200
H           1.46100        -4.80500         0.16000
H           3.76200        -4.81100        -0.79100
H           0.60100         2.00700         3.08100
H          -0.61500        -1.32800         2.34600
H          -0.04300         0.52800         3.80800
H           3.02000        -1.60300         3.20100
H           4.01600         0.58000         2.25000
H           1.24300         1.41300         4.61400
H           1.36000        -1.63200         3.80900
H           2.60400        -0.75200         4.68800
H           3.04900         2.05800         2.23900
H           3.59900         1.38100         3.76800
C           3.53300        -1.50800        -0.08300
C          -1.89700        -1.66500        -1.15400
C          -3.15100        -1.19700        -1.92000
C          -0.75600        -1.98100        -2.13800
H          -2.14200        -2.57700        -0.59900
C          -3.58000        -2.23400        -2.96900
H          -2.94100        -0.24600        -2.42100
H          -3.98000        -1.01500        -1.23700
C          -1.19200        -3.01900        -3.18200
H          -0.45500        -1.06000        -2.64700
H           0.12400        -2.34600        -1.61000
C          -2.44500        -2.57200        -3.93800
H          -4.44900        -1.85600        -3.51300
H          -3.90600        -3.14600        -2.45700
H          -0.36900        -3.19800        -3.87800
H          -1.38900        -3.97300        -2.68100
H          -2.76500        -3.35000        -4.63500
H          -2.21000        -1.69000        -4.54400
C          -2.80000        -0.12700         1.34700
C          -3.77400         0.99400         0.94600
C          -3.54300        -1.42000         1.72900
H          -2.26800         0.23100         2.23800
C          -4.81800         1.23400         2.04700
H          -4.28700         0.73700         0.01500
H          -3.22200         1.91700         0.76200
C          -4.58200        -1.15700         2.82900
H          -4.05400        -1.82400         0.85100
H          -2.84000        -2.18900         2.06100
C          -5.56000        -0.05000         2.42500
H          -5.52400         1.99900         1.71500
H          -4.31600         1.63700         2.93400
H          -5.11900        -2.08200         3.04800
H          -4.06700        -0.87000         3.75300
H          -6.26100         0.14700         3.23900
H          -6.16100        -0.38900         1.57400
O           4.17600        -0.31100        -0.13000
C           5.50900        -0.26300        -0.65200
H           5.53300        -0.57600        -1.69800
H           5.81700         0.77700        -0.57700
H           6.18400        -0.88600        -0.06200

