%nprocshared=14
%mem=8GB
# nmr=giao b3lyp/def2TZVP pop=nbo scfcyc=200

Ligand 13 SPE NoRh 

0  1
P           1.11900        -0.32000        -0.25200
P          -1.68200        -0.31500        -0.80100
O          -0.38500        -2.67600        -1.14000
C          -2.79900        -0.03700        -2.32700
C          -2.14700         1.05300        -3.19000
C          -2.94500        -1.33400        -3.13300
C          -4.18000         0.42200        -1.83000
C          -0.16100        -1.28200        -1.32100
C          -1.48800        -2.92100        -0.35700
C          -2.28900        -1.83600         0.01100
C          -3.70300        -3.33600         1.25200
C          -1.79200        -4.21500         0.04400
C          -2.90700        -4.40900         0.85100
H          -4.56100        -3.50700         1.88900
H          -1.16600        -5.04100        -0.26600
H          -3.15500        -5.41200         1.17600
H          -2.00400         1.98400        -2.64000
H           0.11600        -1.11900        -2.36100
H          -1.17700         0.73900        -3.58200
H          -3.41000        -2.13000        -2.55000
H          -4.67200        -0.34700        -1.23400
H          -2.79000         1.26500        -4.04800
H          -1.98900        -1.69900        -3.51200
H          -3.58500        -1.14300        -3.99900
H          -4.13100         1.33900        -1.24000
H          -4.82100         0.62500        -2.69200
C          -3.39600        -2.04700         0.83200
H          -4.01900        -1.21700         1.13900
C           1.96600        -1.38600         1.07100
C           2.49200        -0.48200         2.20500
C           1.13500        -2.53900         1.65600
H           2.82300        -1.82100         0.54800
C           3.31700        -1.28300         3.22100
H           1.63500        -0.03500         2.71700
H           3.09300         0.33900         1.80900
C           1.94600        -3.33000         2.69400
H           0.23000        -2.14100         2.12600
H           0.82000        -3.21400         0.86500
C           2.50600        -2.44100         3.80500
H           3.66000        -0.61400         4.01500
H           4.21800        -1.67300         2.73400
H           1.31400        -4.11600         3.11500
H           2.77300        -3.83900         2.18700
H           3.12400        -3.03100         4.48700
H           1.68000        -2.03900         4.40300
C           2.47300         0.01500        -1.53100
C           3.66300         0.81300        -0.96900
C           2.97900        -1.25200        -2.24900
H           1.96200         0.64800        -2.26700
C           4.65300         1.18200        -2.08500
H           4.18600         0.21000        -0.22200
H           3.32700         1.71900        -0.46200
C           3.97200        -0.88900        -3.36500
H           3.47800        -1.90700        -1.52900
H           2.15300        -1.82900        -2.67000
C           5.14400        -0.05900        -2.83500
H           5.49700         1.72600        -1.65500
H           4.16600         1.86700        -2.78700
H           4.33500        -1.80500        -3.83600
H           3.44700        -0.32600        -4.14500
H           5.79900         0.23400        -3.65800
H           5.74900        -0.67400        -2.16100

