%nprocshared=14
%mem=8GB
# nmr=giao b3lyp/def2TZVP pop=nbo scfcyc=200

Ligand 15 SPE NoRh 

0  1
C           1.29200         0.81500        -1.78300
C           0.97800         2.05100        -2.40000
H           0.22900         2.07000        -3.18300
C           1.62800         3.20100        -2.05200
H           1.39500         4.13500        -2.54800
C           2.61700         3.18800        -1.04200
C           3.28400         4.37900        -0.65900
H           3.03300         5.30000        -1.17200
C           4.22300         4.37100         0.33800
H           4.72800         5.28600         0.62200
C           4.53000         3.16400         0.99800
H           5.26600         3.16000         1.79200
C           3.90800         1.99300         0.64400
H           4.16700         1.08300         1.16500
C           2.93900         1.95400        -0.39300
C           2.26400         0.74700        -0.79800
C           2.65300        -0.56400        -0.18500
C           4.01200        -1.01000        -0.36900
C           4.89900        -0.38200        -1.28500
H           4.55200         0.45900        -1.86800
C           6.18300        -0.83200        -1.45600
H           6.83200        -0.34100        -2.17100
C           6.66900        -1.92800        -0.71400
H           7.68900        -2.26400        -0.85100
C           5.84000        -2.57200         0.16600
H           6.19200        -3.42900         0.72900
C           4.50000        -2.14700         0.34500
C           3.61500        -2.84000         1.20000
H           3.97800        -3.69000         1.76500
C           2.30200        -2.47500         1.26900
H           1.62800        -3.06300         1.88000
C           1.77700        -1.35700         0.56000
C           0.25900        -1.26100         0.57500
H          -0.06600        -2.23600         0.93600
C           0.60000        -0.42300        -2.26900
H           0.06900        -0.21800        -3.19800
H           1.32800        -1.20900        -2.47300
C          -0.86000        -2.92200        -1.80800
C          -2.04200        -3.63000        -1.13100
H          -2.21500        -4.58800        -1.62700
H          -1.84400        -3.84400        -0.08200
H          -2.96200        -3.05000        -1.19100
C           0.40900        -3.76800        -1.62000
H           1.29100        -3.32300        -2.08100
H           0.63400        -3.95200        -0.57000
H           0.25400        -4.74200        -2.09400
C          -1.15300        -2.78400        -3.31500
H          -1.39900        -3.77100        -3.71400
H          -2.00200        -2.13200        -3.52700
H          -0.29400        -2.41600        -3.87500
P          -0.64600        -1.14800        -1.08100
P          -0.98600        -0.16700         1.61000
C          -0.13300         1.38600         2.39100
C          -1.59100        -1.35600         3.03100
C          -2.84900        -0.76700         3.69900
H          -3.67900        -0.70800         2.99600
H          -3.15600        -1.44100         4.50300
H          -2.69700         0.21300         4.14000
C          -2.02300        -2.69800         2.41800
H          -2.71700        -2.56200         1.58800
H          -1.18300        -3.30800         2.08300
H          -2.53700        -3.27900         3.18700
C          -0.51400        -1.62400         4.09400
H          -0.30000        -0.74700         4.70300
H          -0.87500        -2.40400         4.77000
H           0.42300        -1.97500         3.66100
C          -0.97500         1.97200         3.53800
H          -0.53600         2.93600         3.81000
H          -2.01100         2.16000         3.25500
H          -0.96400         1.35300         4.43300
C          -0.04800         2.45400         1.29000
H           0.55500         3.28900         1.65600
H           0.41500         2.08700         0.38100
H          -1.03100         2.84300         1.03200
C           1.27200         1.07000         2.92500
H           1.93300         0.69400         2.15300
H           1.71000         1.99500         3.31000
H           1.25800         0.35200         3.74200

