%nprocshared=14
%mem=8GB
# nmr=giao b3lyp/def2TZVP pop=nbo scfcyc=200

Ligand 16 SPE NoRh 

0  1
C           1.42500        -0.80600        -1.95400
C           1.15600        -0.17100        -3.19100
H           0.45200        -0.63200        -3.87300
C           1.79500         0.98200        -3.54700
H           1.60100         1.44500        -4.50800
C           2.73600         1.57900        -2.67500
C           3.41800         2.76700        -3.04000
H           3.20500         3.21100        -4.00500
C           4.33300         3.34200        -2.19700
H           4.85500         4.24400        -2.48900
C           4.59300         2.75300        -0.94300
H           5.31000         3.21200        -0.27500
C           3.94600         1.60400        -0.56000
H           4.16500         1.17300         0.40600
C           3.01000         0.96300        -1.41300
C           2.33400        -0.26000        -1.06300
C           2.64600        -0.95100         0.23100
C           3.99100        -1.41600         0.44900
C           4.96500        -1.43500        -0.58600
H           4.69600        -1.08900        -1.57400
C           6.23600        -1.89900        -0.36000
H           6.95400        -1.91200        -1.17100
C           6.61900        -2.36200         0.91600
H           7.62900        -2.71400         1.08200
C           5.70300        -2.37800         1.93500
H           5.97700        -2.75000         2.91500
C           4.37600        -1.92900         1.72600
C           3.40500        -1.99900         2.74900
H           3.69100        -2.36400         3.72900
C           2.10800        -1.66000         2.49100
H           1.36700        -1.77600         3.27400
C           1.68800        -1.16100         1.22600
C           0.18800        -1.02800         1.06000
H          -0.25400        -1.50800         1.93400
C           0.73700        -2.10300        -1.64600
H           0.29600        -2.52400        -2.54900
H           1.44300        -2.83200        -1.24600
C          -1.05000        -3.71200         0.08000
C          -2.26700        -3.73500         1.01500
H          -2.55900        -4.77200         1.19800
H          -2.04600        -3.28900         1.98400
H          -3.12700        -3.21400         0.59300
C           0.13800        -4.39200         0.78000
H           1.03000        -4.43300         0.15600
H           0.40300        -3.90200         1.71700
H          -0.13700        -5.42300         1.01800
C          -1.38300        -4.47900        -1.21400
H          -1.71700        -5.48600        -0.95200
H          -2.18500        -4.01200        -1.78800
H          -0.51600        -4.58900        -1.86600
P          -0.63800        -1.90200        -0.40300
P          -0.83100         0.60100         0.94500
C          -1.70200         0.72800         2.62700
C          -2.50500         2.03800         2.75300
C          -2.61000        -0.47300         2.93600
H          -0.89500         0.74500         3.36700
C          -3.16100         2.16700         4.13500
H          -3.28800         2.05500         1.98900
H          -1.87300         2.90600         2.57200
C          -3.27600        -0.34200         4.31400
H          -3.37800        -0.55700         2.16000
H          -2.04200        -1.40400         2.91300
C          -4.05400         0.96700         4.45200
H          -3.73700         3.09500         4.17500
H          -2.38000         2.25400         4.89900
H          -3.93400        -1.19900         4.47900
H          -2.50500        -0.39000         5.09200
H          -4.46700         1.05600         5.46000
H          -4.90900         0.95800         3.76600
C           0.40800         2.03200         0.92000
C          -0.13800         3.29700         0.23100
C           1.01200         2.34000         2.30600
H           1.20700         1.64500         0.28600
C           0.90700         4.42300         0.19900
H          -1.03500         3.65900         0.74300
H          -0.43000         3.05500        -0.79200
C           2.04600         3.47400         2.23600
H           0.22600         2.64400         3.00000
H           1.47600         1.44400         2.72300
C           1.46100         4.73200         1.59100
H           0.45600         5.31600        -0.24000
H           1.72900         4.13000        -0.46100
H           2.40300         3.69100         3.24600
H           2.91400         3.14300         1.66000
H           2.22400         5.51200         1.52700
H           0.66200         5.13200         2.22600

