%nprocshared=14
%mem=8GB
# nmr=giao b3lyp/def2TZVP pop=nbo scfcyc=200

Ligand 20b SPE NoRh 

0  1
P           0.86100        -0.96300        -0.44400
P          -1.30100        -0.38400         1.21100
C          -0.07600        -1.78100         0.95600
H          -0.49700        -2.76400         0.74200
H           0.57800        -1.85400         1.82600
C          -2.89600        -0.96700         0.50700
C          -3.44000        -0.30900        -0.59600
C          -4.64300        -0.73900        -1.16200
C          -5.28000        -1.84200        -0.60000
C          -4.75900        -2.52200         0.50600
C          -3.55800        -2.07200         1.05200
C          -1.58300        -0.26100         3.03300
H          -2.31700         0.52200         3.22700
H          -1.95300        -1.20000         3.44300
H          -0.64600         0.00300         3.52200
C           0.23100        -1.78700        -1.96800
H           0.68300        -1.33900        -2.85200
H           0.43800        -2.85800        -1.95300
H          -0.84700        -1.63200        -2.01700
H          -6.21200        -2.18900        -1.03400
H          -3.14400        -2.59900         1.90400
H          -2.92000         0.54000        -1.02300
C           2.63100        -1.42900        -0.28900
C           3.29500        -2.15900        -1.27300
C           3.33000        -1.00100         0.84600
C           4.64800        -2.48200        -1.13000
H           2.77500        -2.49100        -2.16300
C           4.67600        -1.31500         1.01600
H           2.82700        -0.41100         1.60400
C           5.31500        -2.05300         0.01400
H           6.36700        -2.29400         0.13100
C           5.43300        -0.87400         2.24100
H           6.32700        -0.30800         1.96900
H           4.82000        -0.24500         2.88700
H           5.76300        -1.73400         2.82800
C           5.35700        -3.30000        -2.17900
H           6.41300        -3.03500        -2.24200
H           5.30100        -4.36600        -1.94200
H           4.91200        -3.16000        -3.16500
C          -5.25000        -0.01100        -2.33500
H          -5.76900        -0.69800        -3.00400
H          -5.98100         0.72900        -1.99600
H          -4.49200         0.51800        -2.91300
C          -5.48800        -3.70400         1.09100
H          -6.42700        -3.39200         1.55500
H          -5.73600        -4.43500         0.31900
H          -4.89100        -4.20600         1.85200

