%nprocshared=14
%mem=8GB
# nmr=giao b3lyp/def2TZVP pop=nbo scfcyc=200

Ligand 22 SPE NoRh 

0  1
N           0.47200        -0.23700         1.69200
O           0.47900        -2.63400         2.38600
P           1.49200        -1.63200         1.52800
P           0.21100         0.18800         0.02100
C          -0.39300        -0.37400         2.90300
H           0.14500         0.07800         3.73600
C          -0.55700        -1.92200         3.10500
H          -0.43700        -2.17100         4.16000
C          -1.97700        -2.26900         2.62200
H          -1.94300        -2.63200         1.59100
H          -2.43400        -3.05500         3.22400
C          -2.70500        -0.95000         2.71800
C          -1.81200         0.11700         2.84400
C          -2.26900         1.42000         3.00500
H          -1.57600         2.24200         3.14000
C          -3.64100         1.65400         3.00800
H          -4.01700         2.66000         3.14300
C          -4.53600         0.59300         2.86600
H          -5.60100         0.78600         2.88400
C          -4.07500        -0.71400         2.72600
H          -4.77900        -1.53300         2.64200
C           3.02600        -1.50500         2.62300
C           2.70600        -1.00400         4.03700
H           1.98700        -1.64400         4.54900
H           2.33600         0.02200         4.03400
H           3.62500        -1.01300         4.62900
C           3.61200        -2.92800         2.70000
H           4.53600        -2.90100         3.28200
H           3.86000        -3.33200         1.71700
H           2.92600        -3.62000         3.19000
C           4.01300        -0.54800         1.93600
H           4.93900        -0.51200         2.51500
H           3.62000         0.46900         1.87800
H           4.26400        -0.87100         0.92500
C           0.59000         1.98200        -0.11100
C           0.41300         2.63500        -1.33700
C           1.14300         2.68100         0.96100
C           0.77400         3.96600        -1.48000
H          -0.02000         2.11600        -2.18300
C           1.50100         4.01700         0.82000
H           1.29600         2.18200         1.90800
C           1.31700         4.65900        -0.39800
H           0.62500         4.46800        -2.42700
H           1.91900         4.55700         1.65900
C          -1.54900         0.02700        -0.50600
C          -2.44700         1.09600        -0.49600
C          -1.97500        -1.21900        -0.98200
C          -3.74800         0.92300        -0.95000
H          -2.14200         2.06700        -0.13200
C          -3.27600        -1.39600        -1.42700
H          -1.27800        -2.04800        -1.01200
C          -4.16300        -0.32200        -1.41100
H          -4.44000         1.75400        -0.93400
H          -3.60100        -2.36300        -1.78700
C           1.73900         6.09900        -0.58400
C          -5.56600        -0.51700        -1.94100
F          -6.08100        -1.69900        -1.54400
F          -5.58100        -0.51100        -3.29100
F          -6.40200         0.45100        -1.52500
F           1.91900         6.72700         0.59200
F           2.90200         6.18000        -1.26700
F           0.82000         6.79500        -1.28400

