%nprocshared=14
%mem=8GB
# nmr=giao b3lyp/def2TZVP pop=nbo scfcyc=200

Ligand 24 SPE NoRh 

0  1
N           0.89400         0.97000         0.56600
N           1.30400        -1.71200        -0.43000
N           0.76300        -1.26600         2.10900
O           0.38500         2.46900        -1.36000
P          -0.49100         1.76900        -0.13800
P           0.35300        -0.66100         0.54400
C           2.14700         1.70700         0.20900
H           2.31500         2.44800         0.98800
C           1.81900         2.38000        -1.17000
H           2.20000         3.40200        -1.18000
C           2.52400         1.52500        -2.23800
H           1.82900         0.78500        -2.64600
H           2.88200         2.12800        -3.07300
C           3.63500         0.86200        -1.45900
C           3.39900         0.92800        -0.08300
C           4.32100         0.42600         0.82800
H           4.15000         0.50500         1.89600
C           5.48300        -0.16900         0.34600
H           6.21800        -0.55800         1.03900
C           5.71600        -0.24600        -1.02700
H           6.63100        -0.69900        -1.38900
C           4.79700         0.27100        -1.93600
H           4.99800         0.22500        -3.00000
C          -1.05900         3.23600         0.90400
C           0.10400         4.11900         1.37300
H           0.69200         4.50500         0.54000
H           0.76300         3.59600         2.06700
H          -0.30400         4.98100         1.90700
C          -1.99400         4.05500        -0.00800
H          -2.39800         4.89500         0.56200
H          -2.84300         3.47100        -0.36900
H          -1.46500         4.45900        -0.87200
C          -1.82800         2.68600         2.11500
H          -2.23700         3.52100         2.68900
H          -1.18300         2.11100         2.78200
H          -2.66100         2.04600         1.81900
C           0.99300        -1.98500        -1.77000
H           0.11600        -1.55600        -2.22200
C           1.94800        -2.81800        -2.26900
H           1.97500        -3.21400        -3.27100
C           2.88600        -3.07800        -1.22300
H           3.76100        -3.70500        -1.28500
C           2.48500        -2.39400        -0.11700
H           2.92000        -2.32200         0.86300
C           0.57500        -2.59300         2.50800
H           0.45000        -3.37800         1.78200
C           0.65000        -2.64400         3.86900
H           0.57900        -3.53800         4.46800
C           0.86700        -1.31600         4.34300
H           0.99200        -1.01100         5.36900
C           0.91300        -0.48900         3.25800
H           1.05600         0.57300         3.18600

