%nprocshared=14
%mem=8GB
# nmr=giao b3lyp/def2TZVP pop=nbo scfcyc=200

Ligand 25 SPE NoRh 

0  1
N           1.15000         0.66800         0.59500
O           0.82300         2.06300        -1.42700
P          -0.12100         1.55200        -0.15200
P           0.43000        -0.91000         0.85400
C           2.47700         1.23600         0.23300
H           2.76300         1.94600         1.01000
C           2.24100         1.97800        -1.14100
H           2.61600         2.99900        -1.07400
C           3.00600         1.18500        -2.21800
H           2.30200         0.64400        -2.85500
H           3.57400         1.84800        -2.87200
C           3.90100         0.26000        -1.43100
C           3.60900         0.29000        -0.06600
C           4.37300        -0.43600         0.84300
H           4.17500        -0.37700         1.90800
C           5.40800        -1.23500         0.36900
H           6.01400        -1.80400         1.06300
C           5.68300        -1.29000        -0.99800
H           6.49700        -1.90700        -1.35600
C           4.93900        -0.53600        -1.90300
H           5.18100        -0.56100        -2.95900
C          -0.53500         3.16600         0.74900
C           0.70900         3.90200         1.26300
H           1.38800         4.18200         0.45800
H           1.25400         3.31700         2.00500
H           0.39400         4.82900         1.75100
C          -1.27100         4.04900        -0.27800
H          -1.58000         4.97700         0.20800
H          -2.17200         3.57300        -0.66900
H          -0.63000         4.30700        -1.12200
C          -1.46400         2.83400         1.92700
H          -1.80600         3.76400         2.38700
H          -0.95000         2.25700         2.69700
H          -2.34400         2.27100         1.61200
C           0.79700        -1.36400         2.65200
H           1.73000        -1.93400         2.61100
C          -0.30700        -2.25800         3.23300
H          -0.52800        -3.12800         2.61400
H           0.00000        -2.62700         4.21400
H          -1.22900        -1.69100         3.37000
C           1.01800        -0.13900         3.54200
H           1.82700         0.49700         3.18700
H           0.11600         0.46900         3.61500
H           1.27100        -0.47300         4.55100
C           1.36100        -2.21400        -0.14300
H           2.41600        -2.01600         0.04700
C           1.08800        -2.07300        -1.64300
H           1.76000        -2.73100        -2.19800
H           0.06300        -2.35500        -1.88500
H           1.24600        -1.05800        -2.00400
C           1.05400        -3.64100         0.33300
H           1.60800        -4.34400        -0.29400
H           1.35800        -3.82200         1.36300
H          -0.00400        -3.89400         0.23700

