%nprocshared=14
%mem=8GB
# nmr=giao b3lyp/def2TZVP pop=nbo scfcyc=200

Ligand 26 SPE NoRh 

0  1
C           0.45900         0.54000        -2.78300
H           1.32600         1.19600        -2.73500
H          -0.41200         1.12600        -3.05800
H           0.63400        -0.21800        -3.54600
C           2.53800        -1.28000         0.44100
C           3.73800        -1.96300         0.08400
H           4.49200        -2.30000         0.77600
C           3.80000        -2.10300        -1.32500
H           4.60200        -2.55800        -1.88500
C           2.64500        -1.49800        -1.87400
H           2.42100        -1.43200        -2.92600
C           1.84500        -0.97900        -0.79500
C           5.41300         0.93200        -0.11800
H           6.08800         0.55200         0.63200
C           5.51700         0.71600        -1.52000
H           6.28200         0.14100        -2.01600
C           4.42300         1.37100        -2.15000
H           4.22200         1.38800        -3.21000
C           4.25300         1.72100         0.12100
H           3.90500         2.06400         1.08200
C           2.08100        -1.04300         1.86300
H           1.45400        -0.14800         1.86200
C           3.26100        -0.78500         2.81900
H           2.90300        -0.51400         3.81200
H           3.87800         0.03400         2.45300
H           3.90100        -1.66100         2.92800
C           0.56000        -1.84500         3.59800
H          -0.24500        -2.55700         3.78600
H           0.12800        -0.84200         3.59100
H           1.26000        -1.91100         4.44300
C           1.74300        -3.47600         2.29300
H           2.12400        -3.72200         1.30300
H           0.95600        -4.19300         2.53600
H           2.55400        -3.61900         3.02400
Fe          3.72300        -0.08100        -0.81300
N           1.17000        -2.13200         2.30300
P           0.20600        -0.22500        -1.11300
P          -2.54600        -0.92000        -0.65400
C          -0.97400        -1.65300        -1.38500
H          -0.63900        -2.47400        -0.75300
H          -1.04000        -2.01700        -2.41000
C          -3.74700        -0.64400        -2.13800
C          -3.20200        -2.28800         0.53700
C          -2.29200        -2.23800         1.77500
H          -1.23700        -2.38200         1.53800
H          -2.38400        -1.29100         2.30600
H          -2.59300        -3.03400         2.46100
C          -4.64500        -1.98900         0.97100
H          -5.36600        -2.15600         0.17200
H          -4.91000        -2.66300         1.79000
H          -4.76800        -0.96900         1.34100
C          -3.12900        -3.70200        -0.06400
H          -3.46300        -4.41500         0.69400
H          -3.76800        -3.83100        -0.93400
H          -2.11300        -3.98700        -0.34000
C          -4.20400        -1.96000        -2.78500
H          -4.88200        -2.52200        -2.14700
H          -4.74700        -1.72700        -3.70600
H          -3.36800        -2.60700        -3.05800
C          -4.97600         0.16400        -1.68300
H          -4.69600         1.15600        -1.33200
H          -5.63900         0.30100        -2.54200
H          -5.55200        -0.32900        -0.90400
C          -3.00600         0.19400        -3.19200
H          -2.17800        -0.34700        -3.64900
H          -3.70600         0.44600        -3.99300
H          -2.63200         1.13000        -2.77300
C           3.64400         1.99300        -1.13600
H           2.75800         2.58800        -1.28900

