%nprocshared=14
%mem=8GB
# nmr=giao b3lyp/def2TZVP pop=nbo scfcyc=200

Ligand 28 SPE NoRh 

0  1
P           0.81200         0.01500         0.23300
C           2.02500        -1.47300         0.30000
H           2.69700        -1.25800         1.13600
C           1.39200        -2.87400         0.53700
H           0.69100        -3.05300        -0.28500
C           2.48600        -3.95900         0.44200
H           3.19800        -3.83100         1.26300
H           2.02700        -4.93900         0.58200
C           3.25300        -3.93400        -0.87600
H           4.00900        -4.72400        -0.88300
H           2.57300        -4.14900        -1.71000
C           3.91000        -2.57400        -1.09400
H           4.62800        -2.41600        -0.27900
C           2.85500        -1.46100        -1.00700
H           2.18400        -1.55700        -1.86900
H           3.36900        -0.50800        -1.12300
C           0.56700        -3.01400         1.84100
H          -0.14100        -2.18400         1.84200
C           1.39600        -2.92700         3.13000
H           2.05000        -3.79400         3.24400
H           0.74200        -2.90800         4.00400
H           2.02800        -2.03700         3.17100
C          -0.28700        -4.29100         1.84600
H          -0.96600        -4.29500         2.70200
H           0.32300        -5.19300         1.92200
H          -0.89200        -4.37100         0.94000
C           4.67400        -2.49900        -2.41800
H           4.00300        -2.65100        -3.26800
H           5.44700        -3.26900        -2.46600
H           5.16200        -1.53000        -2.54600
C           1.98100         1.48500        -0.16700
H           2.42400         1.21600        -1.12700
C           1.30100         2.87100        -0.34700
H           0.78400         3.10800         0.59000
C           2.38100         3.96000        -0.53800
H           2.88600         3.80200        -1.49500
H           1.89200         4.93400        -0.60500
C           3.43400         3.98600         0.56500
H           4.15900         4.78000         0.36600
H           2.96800         4.22700         1.52900
C           4.14400         2.63800         0.66900
H           4.64000         2.44500        -0.29100
C           3.10400         1.53000         0.89500
H           2.66600         1.68300         1.88800
H           3.62500         0.57300         0.93400
C           0.23600         2.93200        -1.47500
H          -0.44300         2.08200        -1.31100
C           0.81300         2.79000        -2.89000
H           1.39900         3.66500        -3.17600
H           0.00600         2.69700        -3.62000
H           1.45600         1.91400        -3.00100
C          -0.61900         4.20400        -1.38900
H          -1.45700         4.15000        -2.08800
H          -0.04800         5.09800        -1.64600
H          -1.03100         4.35100        -0.38800
C           5.20900         2.62000         1.76600
H           4.76600         2.81000         2.74800
H           5.96300         3.38900         1.59000
H           5.72200         1.65600         1.81200
C           0.18200         0.43400         1.95900
H           0.53800         1.41300         2.27100
H           0.47700        -0.28100         2.72200
P          -1.66900         0.45000         1.61500
C          -2.40100         2.07000         2.31700
H          -2.94400         1.73300         3.20200
C          -2.43800        -0.84100         2.77200
H          -2.09900        -1.79500         2.36400
C          -1.96000        -0.72500         4.22400
H          -2.26900         0.21700         4.68200
H          -2.40400        -1.52900         4.81600
H          -0.87800        -0.81100         4.32400
C          -3.97100        -0.81800         2.70300
H          -4.37000        -1.65900         3.27400
H          -4.38700         0.09100         3.14200
H          -4.35200        -0.90400         1.68600
C          -3.41900         2.68700         1.35400
H          -2.94700         3.01600         0.42700
H          -4.22000         1.99100         1.10200
H          -3.88300         3.55900         1.82000
C          -1.37600         3.10300         2.78800
H          -0.77100         3.49100         1.96800
H          -1.90500         3.95200         3.22600
H          -0.70800         2.71000         3.55600

