%nprocshared=14
%mem=8GB
# nmr=giao b3lyp/def2TZVP pop=nbo scfcyc=200

Ligand 29 SPE NoRh 

0  1
C          -0.18200         0.03900        -1.35900
H           0.02800         0.86700        -2.03600
H          -0.02000        -0.90100        -1.88900
P          -1.88500         0.00900        -0.55600
P           0.75200        -0.01300         0.25000
O           1.28500         1.48400         0.55100
O           2.15100        -0.82200        -0.01000
C           2.29500         2.19200        -0.27600
C           1.72200         3.57900        -0.61200
C           3.59500         2.25700         0.52000
H           2.44500         1.60300        -1.17900
C           1.63300         4.42300         0.68300
H           0.69000         3.41800        -0.95000
C           3.45000         3.07500         1.80700
H           3.92600         1.24200         0.74500
H           4.35900         2.69500        -0.12900
C           2.90800         4.49400         1.55300
H           0.85000         3.96800         1.29800
H           1.28200         5.42900         0.45200
H           4.41500         3.12700         2.31700
H           2.76900         2.54800         2.48000
H           2.58900         4.89400         2.52100
C           2.25000        -2.29000        -0.07300
C           2.55200        -2.71100        -1.52600
C           3.34300        -2.71600         0.90400
H           1.29000        -2.69300         0.25100
C           3.97900        -2.24600        -1.91000
H           1.86600        -2.14700        -2.17000
C           4.72800        -2.20400         0.49800
H           3.09100        -2.36100         1.90600
H           3.33900        -3.80900         0.95400
C           5.11600        -2.61600        -0.93300
H           3.94600        -1.15400        -1.96500
H           4.22400        -2.58600        -2.91600
H           5.47400        -2.56600         1.21000
H           4.73200        -1.11400         0.57100
H           5.97400        -2.00000        -1.22300
C           2.44900         4.23300        -1.82500
H           3.52100         4.28700        -1.61400
C           2.27200         3.40600        -3.10900
H           2.71000         2.40900        -3.04400
H           1.21200         3.29700        -3.35800
H           2.75200         3.90700        -3.95100
C           1.95700         5.66300        -2.08600
H           2.19200         6.34500        -1.27100
H           2.42400         6.06300        -2.98800
H           0.87400         5.68300        -2.24100
C           3.99100         5.45000         1.03400
H           3.58300         6.44800         0.86000
H           4.79000         5.54900         1.77200
H           4.45000         5.11500         0.10300
C           2.20900        -4.20800        -1.78300
H           2.73000        -4.82700        -1.04700
C           0.70300        -4.47800        -1.63100
H           0.48400        -5.52900        -1.82800
H           0.32200        -4.25400        -0.63300
H           0.13000        -3.88600        -2.35200
C           2.65200        -4.67400        -3.17600
H           2.21700        -4.04400        -3.95800
H           3.73400        -4.66100        -3.29900
H           2.31800        -5.69700        -3.35600
C           5.59200        -4.07300        -1.01600
H           4.84000        -4.79000        -0.68400
H           5.87100        -4.33700        -2.03800
H           6.47600        -4.21600        -0.39000
C          -2.43100         1.80900        -0.59900
C          -2.74900         2.37500        -1.99400
C          -3.55900         2.12900         0.39800
H          -1.52600         2.30800        -0.23000
C          -3.00700         3.88800        -1.92300
H          -3.64300         1.88600        -2.39200
H          -1.93700         2.16900        -2.69600
C          -3.82900         3.64000         0.45500
H          -4.47800         1.61200         0.10400
H          -3.29100         1.76600         1.39200
C          -4.12400         4.22200        -0.93100
H          -3.25700         4.26000        -2.91900
H          -2.08500         4.39800        -1.62200
H          -4.66100         3.83600         1.13500
H          -2.95400         4.14300         0.88100
H          -4.25600         5.30400        -0.86300
H          -5.07100         3.81600        -1.30200
C          -2.96000        -1.12000        -1.61100
C          -4.44100        -1.08700        -1.19000
C          -2.82100        -0.97100        -3.13700
H          -2.56100        -2.10500        -1.34000
C          -5.23900        -2.17900        -1.91600
H          -4.86900        -0.11100        -1.43700
H          -4.54300        -1.20700        -0.10800
C          -3.62000        -2.06900        -3.85800
H          -3.19300         0.00600        -3.45300
H          -1.77300        -1.02200        -3.44000
C          -5.09200        -2.07000        -3.43600
H          -6.29200        -2.11200        -1.62900
H          -4.88800        -3.16300        -1.58400
H          -3.53300        -1.93000        -4.93800
H          -3.17500        -3.04500        -3.63300
H          -5.62300        -2.89000        -3.92500
H          -5.56800        -1.14500        -3.78100

