%nprocshared=14
%mem=8GB
# nmr=giao b3lyp/def2TZVP pop=nbo scfcyc=200

Ligand 30 SPE NoRh 

0  1
P          -1.07300         0.22000        -0.32600
C          -2.59500        -0.82800        -0.82100
H          -2.86700        -0.48700        -1.82300
C          -2.39900        -2.37000        -0.87000
H          -2.12800        -2.69100         0.14200
C          -3.75000        -3.03700        -1.20600
H          -4.05800        -2.74700        -2.21600
H          -3.61900        -4.12000        -1.22400
C          -4.86400        -2.67500        -0.22800
H          -5.79300        -3.17200        -0.52000
H          -4.61500        -3.04600         0.77400
C          -5.07300        -1.16400        -0.16900
H          -5.39200        -0.83100        -1.16500
C          -3.74400        -0.46300         0.15100
H          -3.45100        -0.72500         1.17500
H          -3.92300         0.61200         0.14800
C          -1.26400        -2.87600        -1.79600
H          -0.35600        -2.35000        -1.49100
C          -1.49200        -2.60200        -3.28900
H          -2.30700        -3.21000        -3.68600
H          -0.59700        -2.85300        -3.86200
H          -1.73500        -1.55800        -3.50000
C          -0.96900        -4.36700        -1.57500
H          -0.06400        -4.65700        -2.11100
H          -1.77700        -5.00400        -1.93900
H          -0.81700        -4.59200        -0.51700
C          -6.15700        -0.76400         0.83300
H          -5.88800        -1.07100         1.84800
H          -7.11000        -1.23700         0.58700
H          -6.31700         0.31700         0.84300
C          -1.75500         2.01300        -0.32400
H          -2.52200         2.00700         0.45300
C          -0.72500         3.11800         0.04700
H           0.10200         3.05800        -0.66900
C          -1.36600         4.51200        -0.13600
H          -2.15400         4.64800         0.61100
H          -0.61300         5.27500         0.06800
C          -1.97100         4.73800        -1.51800
H          -2.39600         5.74300        -1.57600
H          -1.18900         4.68700        -2.28700
C          -3.04300         3.69300        -1.81700
H          -3.83000         3.79500        -1.05900
C          -2.43700         2.28800        -1.68400
H          -1.71000         2.16200        -2.49500
H          -3.22500         1.55500        -1.86400
C          -0.10000         2.97100         1.46100
H           0.25000         1.92900         1.54300
C          -1.08500         3.20700         2.61400
H          -1.38500         4.25400         2.68100
H          -0.61900         2.94900         3.56700
H          -1.99400         2.60900         2.52300
C           1.13900         3.86000         1.63300
H           1.63700         3.64300         2.58100
H           0.88100         4.92100         1.64700
H           1.86400         3.70000         0.83300
C          -3.68200         3.88400        -3.19300
H          -2.93600         3.79500        -3.98900
H          -4.13800         4.87200        -3.27700
H          -4.46100         3.14200        -3.38100
C           0.19100         0.26600        -1.72500
H           0.22500         1.23600        -2.21500
H           0.02700        -0.48900        -2.48800
P           1.72000        -0.12100        -0.70800
C           2.92500         1.26200        -0.93200
C           4.09100         1.22700        -0.15800
C           2.75000         2.30800        -1.83900
C           5.05500         2.21800        -0.28500
H           4.26300         0.41100         0.53300
C           3.71700         3.30300        -1.96400
H           1.87300         2.36000        -2.46900
C           4.86800         3.26300        -1.18600
H           5.95400         2.17400         0.31700
H           3.56900         4.10700        -2.67400
H           5.61800         4.03700        -1.28400
C           2.56800        -1.54000        -1.53500
C           2.42600        -2.83200        -1.02400
C           3.34700        -1.33900        -2.68000
C           3.05000        -3.90800        -1.64800
H           1.82400        -2.99600        -0.14000
C           3.96400        -2.41700        -3.30400
H           3.48400        -0.34400        -3.08200
C           3.82000        -3.70200        -2.78700
H           2.93900        -4.90500        -1.24000
H           4.56500        -2.25200        -4.18900
H           4.30900        -4.53800        -3.27000

