%nprocshared=14
%mem=8GB
# nmr=giao b3lyp/def2TZVP pop=nbo scfcyc=200

Ligand 30 SPE NoRh 

0  1
C           0.03000        -0.21100        -1.46800
H          -0.82300        -0.36800        -2.12700
H           0.77700         0.39800        -1.97900
P           0.83400        -1.76300        -0.77700
P          -0.29000         0.55100         0.20800
O          -1.85800         0.36500         0.54100
O          -0.16600         2.17200         0.03000
C          -2.95800         0.95000        -0.26800
C          -3.92600        -0.19300        -0.62000
C          -3.60600         2.06000         0.55300
H          -2.51000         1.37100        -1.16600
C          -4.63500        -0.67700         0.66900
H          -3.30900        -1.03100        -0.96500
C          -4.26400         1.53300         1.83100
H          -2.85300         2.81400         0.78900
H          -4.34700         2.55100        -0.08400
C          -5.28000         0.41000         1.55700
H          -3.87200        -1.17700         1.27300
H          -5.37000        -1.44500         0.42500
H          -4.74800         2.35800         2.36000
H          -3.48200         1.15400         2.49500
H          -5.49200        -0.07300         2.51700
C           1.11200         2.90500         0.04700
C           1.35600         3.50500        -1.35200
C           1.01700         3.96900         1.13700
H           1.89400         2.18700         0.29800
C           0.30400         4.60800        -1.62500
H           1.15700         2.70600        -2.07800
C          -0.05600         5.02100         0.83900
H           0.81200         3.48800         2.09700
H           1.99900         4.44000         1.23200
C           0.13300         5.68900        -0.53500
H          -0.65900         4.10200        -1.73000
H           0.49700         5.07800        -2.59000
H          -0.05700         5.77600         1.62800
H          -1.03600         4.53700         0.87000
H          -0.80200         6.20700        -0.77100
C          -4.83900         0.17100        -1.82800
H          -5.36900         1.10300        -1.61200
C          -4.02100         0.39300        -3.11100
H          -3.32200         1.22800        -3.04000
H          -3.45100        -0.50700        -3.36800
H          -4.68300         0.60800        -3.95200
C          -5.89400        -0.91000        -2.09800
H          -6.61100        -1.00900        -1.28400
H          -6.46000        -0.66700        -3.00000
H          -5.42500        -1.88500        -2.25500
C          -6.62400         0.94800         1.04700
H          -7.32800         0.13400         0.86300
H          -7.07300         1.60600         1.79400
H          -6.53300         1.52000         0.12300
C           2.84800         3.89200        -1.57300
H           3.16200         4.57900        -0.78100
C           3.77100         2.66400        -1.51000
H           4.80500         2.95700        -1.69700
H           3.75300         2.15700        -0.54400
H           3.49700         1.93200        -2.27700
C           3.06600         4.60400        -2.91500
H           2.70300         3.99200        -3.74700
H           2.56400         5.56900        -2.96500
H           4.13000         4.78300        -3.07800
C           1.22400         6.76900        -0.51700
H           2.20100         6.38800        -0.21600
H           1.33800         7.22900        -1.50000
H           0.95600         7.56200         0.18500
C          -0.41000        -3.10900        -0.95200
C          -1.18000        -3.47800         0.15300
C          -0.61600        -3.74500        -2.18000
C          -2.14800        -4.47000         0.03100
H          -1.02300        -2.98600         1.10500
C          -1.58300        -4.73600        -2.29700
H          -0.01700        -3.48000        -3.04300
C          -2.34900        -5.10000        -1.19200
H          -2.74000        -4.75300         0.89200
H          -1.73600        -5.22800        -3.24900
H          -3.09900        -5.87600        -1.28500
C           2.22400        -2.25800        -1.87700
C           2.91600        -3.43300        -1.55400
C           2.63500        -1.50800        -2.97900
C           3.99500        -3.84700        -2.32400
H           2.60200        -4.03900        -0.71200
C           3.71800        -1.92600        -3.74800
H           2.11600        -0.60100        -3.26000
C           4.40000        -3.09200        -3.42200
H           4.51800        -4.76000        -2.06900
H           4.02400        -1.33900        -4.60500
H           5.24100        -3.41500        -4.02200

