%nprocshared=14
%mem=8GB
# nmr=giao b3lyp/def2TZVP pop=nbo scfcyc=200

Ligand 31 SPE NoRh 

0  1
P          -0.72900         1.20800        -0.82100
P           0.73000        -1.20600        -0.82300
C          -2.49800         1.58700        -1.45100
H          -2.69300         0.78300        -2.16200
C          -2.38400         2.93500        -2.21400
H          -2.75400         3.74300        -1.58200
H          -3.02400         2.91500        -3.09700
C          -0.92600         3.22200        -2.58100
H          -0.62200         2.60100        -3.42800
H          -0.79000         4.26100        -2.88700
C          -0.06700         2.90700        -1.34700
H          -0.38800         3.56600        -0.53400
C           0.00000         0.00200        -2.05700
H          -0.76000        -0.45500        -2.69000
H           0.76100         0.46100        -2.68900
C           2.49900        -1.58300        -1.45400
H           2.69400        -0.77700        -2.16200
C           2.38400        -2.93000        -2.22000
H           2.75600        -3.73800        -1.59100
H           3.02400        -2.90700        -3.10300
C           0.92700        -3.21500        -2.58700
H           0.62200        -2.59300        -3.43200
H           0.79100        -4.25500        -2.89500
C           0.06800        -2.90300        -1.35200
H           0.39000        -3.56400        -0.54000
C          -3.58200         1.53900        -0.39800
C          -3.80600         2.59500         0.49300
H          -3.19400         3.48800         0.45100
C          -4.81900         2.52700         1.44400
H          -4.97800         3.35900         2.11700
C          -5.62900         1.39900         1.52500
H          -6.42400         1.35000         2.25800
C          -5.41500         0.34000         0.64900
H          -6.04500        -0.54000         0.69600
C          -4.40100         0.41100        -0.30100
H          -4.25000        -0.42000        -0.98100
C           1.43000         3.03900        -1.48300
C           2.19800         3.35700        -0.35700
H           1.70800         3.48800         0.60100
C           3.57300         3.52900        -0.45100
H           4.14300         3.79100         0.43100
C           4.21400         3.38300        -1.67800
H           5.28300         3.53200        -1.75800
C           3.46600         3.06500        -2.80600
H           3.95100         2.96700        -3.76900
C           2.08700         2.89500        -2.70900
H           1.52500         2.68500        -3.61100
C           3.58200        -1.53800        -0.39900
C           3.80500        -2.59700         0.48900
H           3.19300        -3.48900         0.44400
C           4.81700        -2.53100         1.44000
H           4.97600        -3.36500         2.11200
C           5.62800        -1.40400         1.52400
H           6.42300        -1.35700         2.25800
C           5.41500        -0.34300         0.65100
H           6.04600         0.53600         0.70000
C           4.40200        -0.41100        -0.30000
H           4.25200         0.42100        -0.97800
C          -1.42900        -3.03600        -1.48800
C          -2.19700        -3.35600        -0.36300
H          -1.70700        -3.48900         0.59500
C          -3.57200        -3.52900        -0.45600
H          -4.14200        -3.79300         0.42600
C          -4.21300        -3.38100        -1.68300
H          -5.28200        -3.53100        -1.76300
C          -3.46500        -3.06000        -2.81000
H          -3.95100        -2.96100        -3.77300
C          -2.08600        -2.89000        -2.71400
H          -1.52500        -2.67800        -3.61500

