%nprocshared=14
%mem=8GB
# nmr=giao b3lyp/def2TZVP pop=nbo scfcyc=200

Ligand 33c SPE NoRh 

0  1
C           2.20600        -1.17200        -1.14300
C           2.16900        -2.31800        -1.95900
H           1.32000        -2.46600        -2.61200
C           3.20900        -3.20400        -1.92000
H           3.20100        -4.08300        -2.55300
C           4.29800        -3.00200        -1.03700
C           5.34100        -3.95500        -0.93200
H           5.30900        -4.83200        -1.56900
C           6.36300        -3.78500        -0.03600
H           7.15300        -4.52200         0.04100
C           6.37700        -2.65200         0.80300
H           7.17100        -2.53300         1.52900
C           5.39200        -1.70000         0.71400
H           5.41900        -0.84300         1.37100
C           4.33100        -1.82900        -0.21800
C           3.27800        -0.85700        -0.33400
C           2.25000         0.77000         1.23300
C           2.24600         1.91500         2.05000
H           1.40600         2.08200         2.71100
C           3.31000         2.77300         2.00400
H           3.33300         3.65000         2.64000
C           4.38500         2.54400         1.11000
C           5.45400         3.46800         1.00000
H           5.45300         4.34300         1.64100
C           6.46400         3.27300         0.09500
H           7.27300         3.98700         0.01500
C           6.44000         2.14300        -0.74800
H           7.22600         2.00500        -1.48000
C           5.43000         1.21800        -0.65400
H           5.42900         0.36200        -1.31300
C           4.38100         1.37300         0.28700
C           3.30300         0.43100         0.40900
C          -3.41700        -1.52500        -1.11000
C          -2.73500        -2.00800        -2.23100
H          -1.65300        -1.99200        -2.25500
C          -3.43900        -2.50800        -3.32000
H          -2.90100        -2.89000        -4.17700
C          -4.83100        -2.51100        -3.31100
H          -5.37800        -2.90000        -4.16100
C          -5.51700        -2.00800        -2.21100
H          -6.60000        -2.00200        -2.20100
C          -4.81700        -1.51400        -1.11500
H          -5.36800        -1.12500        -0.26900
C          -3.39800        -0.98000         1.79700
C          -4.16700        -2.12300         2.03500
H          -4.28300        -2.87800         1.26900
C          -4.79200        -2.30000         3.26400
H          -5.38600        -3.18800         3.44100
C          -4.65500        -1.34100         4.26400
H          -5.14400        -1.48300         5.22000
C          -3.89100        -0.20200         4.03400
H          -3.78400         0.54600         4.81000
C          -3.26700        -0.01900         2.80600
H          -2.67000         0.86800         2.62900
C          -0.40200        -2.72400         0.89500
H           0.63900        -2.77700         0.57400
C          -0.42400        -2.77000         2.42500
H           0.11400        -1.92400         2.84800
H           0.06400        -3.68700         2.76300
H          -1.44200        -2.77100         2.81400
C          -1.14100        -3.90400         0.27000
H          -2.20100        -3.90300         0.52600
H          -0.71400        -4.83200         0.65300
H          -1.04900        -3.91300        -0.81500
N          -0.88400        -1.40600         0.36300
O           1.10000        -0.31400        -1.23000
O           1.12800        -0.06800         1.30800
P           0.07300        -0.04200         0.03200
P          -2.48400        -0.68900         0.23200

