%nprocshared=14
%mem=8GB
# nmr=giao b3lyp/def2TZVP pop=nbo scfcyc=200

Ligand 34 SPE NoRh 

0  1
P          -0.34600        -0.10800        -0.21500
P           2.13000        -0.86500        -0.53300
O          -1.40400         0.10000        -1.46200
O          -1.36000        -0.50100         1.01800
O           3.01300        -1.95400         0.33000
O           2.77800        -1.15200        -2.00700
N           0.53700        -1.46700        -0.75000
C          -2.47700         0.98300        -1.25300
C          -2.41700         2.22300        -1.91400
H          -1.58000         2.42700        -2.56900
C          -3.42700         3.12700        -1.73000
H          -3.40800         4.07900        -2.24600
C          -4.49900         2.84400        -0.84800
C          -5.50900         3.80400        -0.59200
H          -5.46500         4.75500        -1.11100
C          -6.51400         3.54800         0.30300
H          -7.27800         4.29100         0.49500
C          -6.54500         2.31600         0.98800
H          -7.32700         2.12700         1.71300
C          -5.59400         1.35600         0.74900
H          -5.63400         0.42000         1.28800
C          -4.55300         1.57500        -0.18700
C          -3.53500         0.59700        -0.45900
C          -3.58000        -0.78100         0.10000
C          -4.69400        -1.66200        -0.12700
C          -5.75700        -1.34000        -1.00900
H          -5.73900        -0.40000        -1.54100
C          -6.80000        -2.20900        -1.20800
H          -7.59500        -1.94300        -1.89300
C          -6.84700        -3.44700        -0.53500
H          -7.68200        -4.11700        -0.69600
C          -5.82600        -3.80300         0.30600
H          -5.84000        -4.76100         0.81300
C          -4.72300        -2.93900         0.51900
C          -3.63700        -3.32900         1.34000
H          -3.67400        -4.28800         1.84200
C          -2.54300        -2.52100         1.48000
H          -1.69400        -2.81500         2.08300
C          -2.52200        -1.27200         0.83400
C           3.19100        -1.91200         1.71800
C           2.11200        -1.94800         2.59200
H           1.10000        -1.98200         2.21300
C           2.35500        -1.95800         3.96300
H           1.51900        -1.99200         4.65100
C           4.72700        -1.91500         3.55800
H           5.74400        -1.91200         3.92900
C           4.49800        -1.89700         2.18700
H           5.31800        -1.88100         1.48100
C           4.07700        -0.76200        -2.37700
C           4.22200         0.38400        -3.14600
H           3.34800         0.96600        -3.41000
C           5.49300         0.74600        -3.58300
H           5.61600         1.63400        -4.19100
C           6.42800        -1.18900        -2.49600
H           7.28200        -1.81000        -2.25500
C           5.16300        -1.56400        -2.05200
H           5.01300        -2.46700        -1.47600
C           0.01600        -2.71400        -1.40400
H          -1.02000        -2.78500        -1.06800
C           0.76300        -3.95000        -0.90700
H           0.73000        -4.03200         0.18000
H           1.80700        -3.94100        -1.22100
H           0.29500        -4.84100        -1.32800
C           0.02300        -2.59700        -2.92800
H          -0.52300        -1.71300        -3.25400
H          -0.46200        -3.47500        -3.35800
H           1.04100        -2.54300        -3.31300
C           6.59600        -0.03700        -3.25700
H           7.58200         0.24400        -3.60500
C           3.65800        -1.94300         4.45000
H           3.84000        -1.96100         5.51600

