%nprocshared=14
%mem=8GB
# nmr=giao b3lyp/def2TZVP pop=nbo scfcyc=200

Ligand 35 SPE NoRh 

0  1
P          -0.57000        -0.01400        -0.27900
P           1.91700        -0.65000        -0.75100
O          -1.61500         0.50800        -1.44300
O          -1.59700        -0.71900         0.79400
O           2.79400        -1.92200        -0.18600
O           2.58300        -0.54100        -2.23900
N           0.33000        -1.18200        -1.13700
C          -2.69500         1.30300        -1.02500
C          -2.63500         2.67300        -1.33700
H          -1.79100         3.04300        -1.90400
C          -3.65200         3.49400        -0.93700
H          -3.63200         4.54900        -1.18500
C          -4.73400         2.98800        -0.17500
C          -5.75300         3.84500         0.30900
H          -5.70700         4.89800         0.05800
C          -6.76700         3.36100         1.09200
H          -7.53800         4.02600         1.46100
C          -6.80000         1.99200         1.43000
H          -7.59000         1.61800         2.07000
C          -5.84000         1.13100         0.96200
H          -5.88100         0.08700         1.23600
C          -4.78800         1.59000         0.13000
C          -3.76100         0.72000        -0.37400
C          -3.80400        -0.75700        -0.19500
C          -4.90900        -1.55100        -0.66000
C          -5.96300        -1.01300        -1.44200
H          -5.94400         0.03300        -1.70900
C          -6.99800        -1.80300        -1.87600
H          -7.78600        -1.36900        -2.47900
C          -7.04400        -3.17400        -1.55100
H          -7.87200        -3.78200        -1.89400
C          -6.03100        -3.73500        -0.81800
H          -6.04500        -4.79100        -0.57900
C          -4.93800        -2.95200        -0.37100
C          -3.85900        -3.54000         0.33400
H          -3.89600        -4.59700         0.56700
C          -2.77300        -2.79300         0.69600
H          -1.92900        -3.23200         1.21200
C          -2.75100        -1.41900         0.40000
C           2.95600        -2.23400         1.17000
C           1.87400        -2.51800         1.99100
H           0.86500        -2.47200         1.60500
C           2.10400        -2.87700         3.31600
H           1.25700        -3.10000         3.95400
C           3.39700        -2.97000         3.83400
C           4.46500        -2.67900         2.97900
H           5.48100        -2.74500         3.35200
C           4.25400        -2.31300         1.65600
H           5.08600        -2.09500         0.99800
C           3.88700        -0.06600        -2.47300
C           4.04400         1.23500        -2.92700
H           3.17400         1.86700        -3.05700
C           5.31900         1.69500        -3.23800
H           5.44000         2.70800        -3.60400
C           6.44000         0.87100        -3.10700
C           6.24300        -0.43800        -2.66100
H           7.09200        -1.10500        -2.57200
C           4.97500        -0.91700        -2.34700
H           4.82800        -1.93800        -2.02200
C          -0.17300        -2.21900        -2.10000
H          -1.21200        -2.37900        -1.80900
C           0.57700        -3.53800        -1.93000
H           0.53200        -3.89900        -0.90200
H           1.62500        -3.44300        -2.21700
H           0.12100        -4.29100        -2.57500
C          -0.14700        -1.71000        -3.54100
H          -0.69700        -0.77400        -3.63500
H          -0.61900        -2.44900        -4.19200
H           0.87500        -1.55200        -3.88400
C           7.82200         1.38100        -3.42700
H           8.32600         1.73700        -2.52500
H           8.44400         0.59600        -3.85900
H           7.78600         2.21100        -4.13300
C           3.63900        -3.40500         5.25600
H           3.85100        -4.47700         5.30400
H           4.49400        -2.88600         5.69300
H           2.76900        -3.21500         5.88600

