%nprocshared=14
%mem=8GB
# nmr=giao b3lyp/def2TZVP pop=nbo scfcyc=200

Ligand 36 SPE NoRh 

0  1
P          -0.56600        -0.04000        -0.27700
P           1.92300        -0.71000        -0.68600
O          -1.61600         0.36900        -1.48200
O          -1.59000        -0.64800         0.85800
O           2.79100        -1.92300         0.01000
O           2.59700        -0.75200        -2.17600
N           0.33800        -1.27600        -1.02800
C          -2.70000         1.19400        -1.13800
C          -2.64700         2.52900        -1.57600
H          -1.80500         2.84900        -2.17600
C          -3.66800         3.37900        -1.25100
H          -3.65400         4.40600        -1.59600
C          -4.74600         2.93900        -0.44400
C          -5.76800         3.83300        -0.03900
H          -5.72900         4.85900        -0.38700
C          -6.77900         3.41800         0.78800
H          -7.55300         4.11100         1.09500
C          -6.80400         2.08700         1.25100
H          -7.59100         1.77000         1.92400
C          -5.84100         1.19000         0.86200
H          -5.87600         0.17600         1.23200
C          -4.79200         1.57600        -0.01100
C          -3.76200         0.66800        -0.43400
C          -3.79800        -0.78600        -0.12000
C          -4.89900        -1.62500        -0.51000
C          -5.95700        -1.16500        -1.33500
H          -5.94400        -0.14700        -1.69600
C          -6.98800        -1.99600        -1.69400
H          -7.77900        -1.62200        -2.33200
C          -7.02800        -3.33200        -1.24600
H          -7.85300        -3.97200        -1.53100
C          -6.01100        -3.81900        -0.46700
H          -6.01900        -4.85000        -0.13400
C          -4.92100        -2.99400        -0.09500
C          -3.83800        -3.51100         0.65800
H          -3.86900        -4.54300         0.98500
C          -2.75500        -2.72900         0.94800
H          -1.90800        -3.11500         1.50000
C          -2.74100        -1.38700         0.53000
C           2.95900        -2.07100         1.39400
C           1.89100        -2.37300         2.22600
H           0.89200        -2.46300         1.82400
C           2.11500        -2.57200         3.58600
H           1.28200        -2.81100         4.23700
C           3.40600        -2.48200         4.10400
C           4.47400        -2.18500         3.25500
H           5.47300        -2.13000         3.66700
C           4.25000        -1.98000         1.90300
H           5.07300        -1.76100         1.23500
C           3.91600        -0.33700        -2.43900
C           4.11200         0.89900        -3.03600
H           3.26200         1.53500        -3.24900
C           5.40000         1.30000        -3.37700
H           5.55500         2.26300        -3.85200
C           6.48200         0.45600        -3.13000
C           6.26900        -0.79100        -2.54100
H           7.11600        -1.44300        -2.37300
C           4.98500        -1.19300        -2.20200
H           4.81000        -2.16500        -1.76400
C          -0.16200        -2.39500        -1.89600
H          -1.20000        -2.53400        -1.59100
C           0.59500        -3.69100        -1.61600
H           0.55200        -3.96400        -0.56200
H           1.64200        -3.61600        -1.91000
H           0.14300        -4.49800        -2.19500
C          -0.14000        -2.01100        -3.37600
H          -0.69500        -1.09000        -3.54900
H          -0.60800        -2.80600        -3.96100
H           0.88200        -1.87800        -3.73200
O           3.69500        -2.66900         5.42200
H           2.90500        -2.92600         5.91100
O           7.76700         0.78300        -3.44000
H           7.80400         1.64000        -3.88100

