%nprocshared=14
%mem=8GB
# nmr=giao b3lyp/def2TZVP pop=nbo scfcyc=200

Ligand 38 SPE NoRh 

0  1
P          -1.34800        -0.11800        -0.01700
P           1.34300        -0.11800         0.07000
O          -2.29700         0.10900        -1.33900
O          -2.30700         0.39300         1.22900
O           2.32500         0.08300         1.37100
O           2.26900         0.41600        -1.19000
C          -3.09500         1.26500        -1.43600
C          -2.74500         2.18500        -2.43800
H          -1.91000         1.96100        -3.09000
C          -3.48000         3.33100        -2.57700
H          -3.23300         4.04500        -3.35300
C          -4.55300         3.61200        -1.69800
C          -5.27300         4.83000        -1.79000
H          -5.00500         5.53200        -2.57100
C          -6.27500         5.12400        -0.90400
H          -6.81400         6.06000        -0.98000
C          -6.59500         4.21000         0.12100
H          -7.37000         4.45800         0.83500
C          -5.93100         3.01400         0.22800
H          -6.18700         2.33200         1.02500
C          -4.90300         2.66400        -0.68500
C          -4.18000         1.42500        -0.60000
C          -4.54900         0.35500         0.37000
C          -5.85200        -0.25000         0.39300
C          -6.83500         0.01500        -0.59400
H          -6.60600         0.69600        -1.40100
C          -8.06700        -0.58700        -0.54500
H          -8.79900        -0.37400        -1.31400
C          -8.39100        -1.48400         0.49400
H          -9.37100        -1.94300         0.52400
C          -7.45800        -1.78000         1.45400
H          -7.69000        -2.48100         2.24700
C          -6.16900        -1.19200         1.42300
C          -5.18600        -1.53500         2.38200
H          -5.44300        -2.22900         3.17400
C          -3.92200        -1.01700         2.30300
H          -3.15100        -1.27800         3.01700
C          -3.61900        -0.10100         1.28100
C           3.13100         1.23400         1.46800
C           2.81200         2.13700         2.49600
H           1.99300         1.90500         3.16500
C           3.55500         3.27700         2.63700
H           3.33200         3.97800         3.43200
C           4.60700         3.57000         1.73600
C           5.33400         4.78200         1.83200
H           5.09100         5.47100         2.63200
C           6.31500         5.08900         0.92500
H           6.86000         6.02000         1.00400
C           6.60300         4.19300        -0.12500
H           7.36100         4.45000        -0.85400
C           5.93100         3.00200        -0.23600
H           6.16300         2.33400        -1.05300
C           4.92600         2.63900         0.69600
C           4.19500         1.40500         0.60800
C           4.53400         0.35200        -0.39100
C           5.83200        -0.25800        -0.46000
C           6.84300        -0.01500         0.50500
H           6.63800         0.65100         1.33000
C           8.07000        -0.62200         0.41100
H           8.82300        -0.42600         1.16500
C           8.36200        -1.50000        -0.65300
H           9.33900        -1.96200        -0.71700
C           7.40300        -1.77400        -1.59200
H           7.61100        -2.46100        -2.40500
C           6.11800        -1.18200        -1.51600
C           5.10800        -1.50400        -2.45500
H           5.34000        -2.18300        -3.26600
C           3.84900        -0.98200        -2.33200
H           3.05800        -1.22700        -3.02900
C           3.57800        -0.08300        -1.28600
C          -0.00300         1.16100         0.05400
H          -0.04800         1.76300         0.96300
H           0.03900         1.81400        -0.81900

