%nprocshared=14
%mem=8GB
# nmr=giao b3lyp/def2TZVP pop=nbo scfcyc=200

Ligand 39 SPE NoRh 

0  1
P          -1.28900        -0.39700        -0.04100
P           1.28900        -0.39800         0.04200
O          -2.16900        -0.04000        -1.35400
O          -2.15800         0.23200         1.19000
O           2.17000        -0.04100         1.35400
O           2.15700         0.23200        -1.19000
C          -2.84400         1.20000        -1.46200
C          -2.37600         2.07200        -2.45600
H          -1.54700         1.76600        -3.07800
C          -2.98400         3.28700        -2.60800
H          -2.64600         3.97300        -3.37500
C          -4.03800         3.68300        -1.74800
C          -4.62100         4.97000        -1.85300
H          -4.26900         5.63600        -2.63100
C          -5.59700         5.37400        -0.98000
H          -6.03100         6.36200        -1.06600
C          -6.02400         4.50600         0.04500
H          -6.77600         4.83900         0.74900
C          -5.49400         3.24600         0.16300
H          -5.83000         2.60000         0.96200
C          -4.50100         2.78200        -0.73600
C          -3.91500         1.47300        -0.64000
C          -4.39900         0.45500         0.33200
C          -5.76100        -0.00300         0.35900
C          -6.70900         0.36400        -0.63000
H          -6.40600         1.01100        -1.44000
C          -8.00100        -0.09800        -0.57700
H          -8.70400         0.19100        -1.34800
C          -8.42100        -0.94700         0.46700
H          -9.44600        -1.29400         0.50000
C          -7.52700        -1.34100         1.42700
H          -7.83400        -2.00700         2.22400
C          -6.18000        -0.90000         1.39300
C          -5.23900        -1.34900         2.35100
H          -5.57000        -2.00700         3.14600
C          -3.92500        -0.97700         2.26700
H          -3.18700        -1.32100         2.98000
C          -3.52700        -0.10300         1.24200
C           2.84500         1.20000         1.46200
C           2.37700         2.07100         2.45700
H           1.54800         1.76500         3.07900
C           2.98500         3.28700         2.60800
H           2.64700         3.97200         3.37600
C           4.03800         3.68200         1.74900
C           4.62200         4.96900         1.85400
H           4.27000         5.63600         2.63200
C           5.59700         5.37400         0.98100
H           6.03100         6.36200         1.06600
C           6.02400         4.50600        -0.04400
H           6.77500         4.83900        -0.74900
C           5.49400         3.24500        -0.16300
H           5.83000         2.60000        -0.96200
C           4.50100         2.78200         0.73700
C           3.91500         1.47300         0.64000
C           4.39900         0.45500        -0.33200
C           5.76100        -0.00300        -0.35900
C           6.71000         0.36400         0.62900
H           6.40700         1.01000         1.43900
C           8.00100        -0.09800         0.57600
H           8.70500         0.19100         1.34600
C           8.42100        -0.94700        -0.46900
H           9.44600        -1.29400        -0.50200
C           7.52600        -1.34100        -1.42900
H           7.83300        -2.00700        -2.22600
C           6.18000        -0.90000        -1.39400
C           5.23900        -1.34900        -2.35200
H           5.56900        -2.00700        -3.14700
C           3.92500        -0.97700        -2.26800
H           3.18600        -1.32000        -2.98000
C           3.52700        -0.10200        -1.24200
O           0.00000         0.66900         0.00100

