%nprocshared=14
%mem=8GB
# nmr=giao b3lyp/def2TZVP pop=nbo scfcyc=200

Ligand 42 SPE NoRh 

0  1
P          -0.34700        -0.02200        -0.19200
P           2.13000        -0.79100        -0.45800
O          -1.40600         0.10600        -1.44900
O          -1.36000        -0.34100         1.06400
O           3.01400        -1.81500         0.48100
O           2.78700        -1.17400        -1.90600
N           0.54000        -1.40900        -0.64300
C          -2.47900         1.00100        -1.29500
C          -2.41900         2.19700        -2.03100
H          -1.58300         2.35900        -2.69900
C          -3.42800         3.11200        -1.90200
H          -3.40900         4.03000        -2.47600
C          -4.49900         2.88400        -1.00300
C          -5.50800         3.86000        -0.80600
H          -5.46400         4.77600        -1.38300
C          -6.51200         3.66000         0.10500
H          -7.27500         4.41400         0.25200
C          -6.54300         2.47300         0.86500
H          -7.32400         2.33000         1.60100
C          -5.59300         1.49900         0.68500
H          -5.63300         0.59900         1.28100
C          -4.55200         1.65900        -0.26500
C          -3.53600         0.66600        -0.47600
C          -3.58200        -0.67500         0.16700
C          -4.69600        -1.56800        -0.00500
C          -5.75900        -1.30000        -0.90400
H          -5.74200        -0.39400        -1.49200
C          -6.80400        -2.17800        -1.04800
H          -7.59900        -1.95400        -1.74700
C          -6.85000        -3.37300        -0.30100
H          -7.68600        -4.05100        -0.42000
C          -5.82900        -3.67800         0.56000
H          -5.84300        -4.60200         1.12500
C          -4.72500        -2.80300         0.71900
C          -3.63800        -3.14300         1.56000
H          -3.67500        -4.06900         2.12000
C          -2.54300        -2.32900         1.64900
H          -1.69300        -2.58600         2.26700
C          -2.52200        -1.12100         0.92800
C           3.19100        -1.67500         1.86100
C           2.11300        -1.65000         2.73700
H           1.10100        -1.70900         2.36300
C           2.35800        -1.56500         4.10600
H           1.52200        -1.54900         4.79400
C           4.72900        -1.55000         3.69700
H           5.74700        -1.52200         4.06600
C           4.49900        -1.62800         2.32800
H           5.31900        -1.66200         1.62200
C           4.09000        -0.81800        -2.29300
C           4.24700         0.27100        -3.14000
H           3.37900         0.83600        -3.45300
C           5.52300         0.59500        -3.59200
H           5.65600         1.43600        -4.26000
C           6.44000        -1.26400        -2.36400
H           7.28800        -1.87000        -2.07300
C           5.16900        -1.60000        -1.90500
H           5.01100        -2.45900        -1.26800
C           0.01800        -2.69300        -1.22300
H          -1.02800        -2.72700        -0.91000
C           0.73400        -3.89700        -0.59700
H           0.72300        -3.78100         0.49000
H           1.78500        -3.89400        -0.90000
C           0.06400        -2.66700        -2.75100
H          -0.42600        -1.77300        -3.13500
H          -0.46300        -3.53300        -3.15100
H           1.09100        -2.68800        -3.11500
C           6.62000        -0.16900        -3.20300
H           7.60900         0.08200        -3.56200
C           3.66100        -1.51500         4.58900
H           3.84400        -1.45900         5.65400
C           0.09500        -5.23700        -0.96600
H           0.18600        -5.45700        -2.03000
H           0.58200        -6.04900        -0.42300
H          -0.96700        -5.25700        -0.70600

