%nprocshared=14
%mem=8GB
# nmr=giao b3lyp/def2TZVP pop=nbo scfcyc=200

Ligand 43 SPE NoRh 

0  1
P          -1.37500        -0.35200         0.07600
P           1.31900        -0.31000         0.05800
N          -0.01200        -1.36700         0.46100
C          -0.08400        -2.84500         0.68100
H          -1.10400        -3.01300         1.04000
C           0.86700        -3.30100         1.79700
H           0.71000        -2.66900         2.67300
H           1.90200        -3.14000         1.48600
C           0.68200        -4.76600         2.20100
H           1.31000        -5.00200         3.06200
H           0.95600        -5.45300         1.40000
H          -0.35400        -4.97400         2.48200
C           0.09200        -3.64400        -0.61500
H          -0.53600        -3.24700        -1.41100
H          -0.19800        -4.68400        -0.45500
H           1.12600        -3.63400        -0.95700
C          -2.36600        -1.13800        -1.26300
C          -3.31800        -2.13000        -1.00400
H          -3.53000        -2.43300         0.01300
C          -4.00800        -2.72700        -2.05200
H          -4.74300        -3.49500        -1.84300
C          -3.76100        -2.33700        -3.36500
H          -4.30400        -2.80200        -4.17900
C          -2.82300        -1.34600        -3.63100
H          -2.63600        -1.03400        -4.65100
C          -2.12900        -0.74700        -2.58500
H          -1.40400         0.03100        -2.79000
C          -2.50900        -0.35800         1.52600
C          -2.11300        -0.82200         2.78100
H          -1.13600        -1.26700         2.91100
C          -2.97500        -0.73000         3.87000
H          -2.66100        -1.10500         4.83600
C          -4.23400        -0.16100         3.71900
H          -4.90300        -0.08800         4.56700
C          -4.63400         0.31100         2.47100
H          -5.61600         0.75100         2.34600
C          -3.77900         0.21300         1.38100
H          -4.11400         0.56900         0.41300
C           2.36200        -1.09200        -1.24300
C           3.38000        -2.00900        -0.95700
H           3.61600        -2.26500         0.06700
C           4.10100        -2.60000        -1.98700
H           4.88700        -3.30800        -1.75500
C           3.81700        -2.28200        -3.31300
H           4.38200        -2.74300        -4.11300
C           2.80900        -1.37100        -3.60700
H           2.58800        -1.11800        -4.63600
C           2.08700        -0.77700        -2.57700
H           1.30500        -0.06500        -2.80800
C           2.41900        -0.07700         1.51700
C           1.87300        -0.02000         2.80200
H           0.82300        -0.22400         2.95300
C           2.66900         0.30800         3.89300
H           2.23400         0.33700         4.88400
C           4.01600         0.60600         3.71200
H           4.63500         0.86200         4.56300
C           4.56200         0.58100         2.43400
H           5.60700         0.82000         2.28300
C           3.77000         0.24500         1.34000
H           4.21400         0.23400         0.35300

