%nprocshared=14
%mem=8GB
# nmr=giao b3lyp/def2TZVP pop=nbo scfcyc=200

Ligand 44 SPE NoRh 

0  1
P          -0.96100        -0.66000         0.28700
P           1.19000         1.10000         0.51000
C          -2.36700         0.13100        -0.59400
C          -2.23300         0.27100        -1.96100
H          -1.33700        -0.09400        -2.44600
C          -3.22800         0.89500        -2.73800
H          -3.09300         0.98500        -3.80800
C          -4.35300         1.38700        -2.13400
H          -5.12300         1.87300        -2.72100
C          -4.53800         1.27500        -0.73300
C          -5.70200         1.79000        -0.11100
H          -6.45000         2.27300        -0.72900
C          -5.88600         1.68200         1.24300
H          -6.78000         2.07900         1.70700
C          -4.90900         1.04400         2.03200
H          -5.06200         0.95100         3.10000
C          -3.77000         0.53300         1.46100
H          -3.05200         0.02800         2.09200
C          -3.53800         0.63200         0.06600
C          -1.63500        -2.10600         1.21000
C          -2.73100        -2.80500         0.69600
H          -3.24200        -2.44700        -0.18900
C          -3.18800        -3.95500         1.33200
H          -4.04400        -4.48400         0.93000
C          -2.55700        -4.42000         2.48000
H          -2.91700        -5.31200         2.97600
C          -1.45800        -3.73400         2.99000
H          -0.96100        -4.09100         3.88400
C          -0.99400        -2.58800         2.35500
H          -0.12900        -2.07800         2.76200
C          -0.32100         0.61300         1.51000
H          -1.01100         1.42100         1.74700
H          -0.00700         0.13000         2.43500
C           2.55400         1.44300         1.70200
C           2.88600         0.47200         2.65500
H           2.32600        -0.45400         2.71300
C           3.94200         0.68000         3.53300
H           4.18200        -0.07300         4.27300
C           4.69100         1.85100         3.45800
H           5.51600         2.01200         4.14000
C           4.38100         2.81000         2.50100
H           4.96300         3.72100         2.43500
C           3.31800         2.61000         1.62400
H           3.08500         3.36900         0.88900
C           0.77400         2.71100        -0.26900
C           0.26400         3.77100         0.49000
H           0.11000         3.66100         1.55600
C          -0.03800         4.98300        -0.11900
H          -0.43300         5.79800         0.47400
C           0.16700         5.14800        -1.48700
H          -0.06800         6.09400        -1.95800
C           0.67400         4.09900        -2.24600
H           0.83200         4.22500        -3.30900
C           0.97400         2.88300        -1.64000
H           1.35700         2.06400        -2.23500

