%nprocshared=14
%mem=8GB
# nmr=giao b3lyp/def2TZVP pop=nbo scfcyc=200

Ligand 45 SPE NoRh 

0  1
P           0.60800         0.80100         0.22800
P          -2.12400         0.95500         0.93300
C           1.20700         1.95300        -1.08400
C           0.69200         1.85800        -2.37800
H          -0.03400         1.08800        -2.61100
C           1.10800         2.74700        -3.36500
H           0.70600         2.66700        -4.36700
C           2.04200         3.73200        -3.06400
H           2.36900         4.42200        -3.83200
C           2.56100         3.83000        -1.77500
H           3.29200         4.59300        -1.54000
C           2.14800         2.94400        -0.78700
H           2.56900         3.01900         0.20800
C          -0.52600         1.87200         1.27700
H          -0.52800         2.90800         0.94000
H          -0.28800         1.86300         2.33700
C          -3.29800         2.23500         0.20900
H          -3.26400         3.07500         0.90900
C          -2.81400         2.72300        -1.16000
H          -1.80700         3.13800        -1.12900
H          -3.48000         3.50900        -1.52200
H          -2.82200         1.91500        -1.89300
C          -4.73800         1.71400         0.13600
H          -4.82400         0.85600        -0.53400
H          -5.38700         2.49700        -0.26000
H          -5.13500         1.42500         1.10900
C          -2.84000         0.51100         2.61800
H          -3.77200        -0.00600         2.37100
C          -3.16800         1.73000         3.48700
H          -3.59100         1.39700         4.43700
H          -3.89500         2.39700         3.02300
H          -2.27400         2.31300         3.72000
C          -1.93500        -0.48000         3.36000
H          -0.99800        -0.01600         3.67700
H          -1.68700        -1.34700         2.74600
H          -2.43900        -0.83300         4.26200
C           2.10200         0.37200         1.23700
C           3.20100        -0.33100         0.63500
C           2.14400         0.66400         2.58400
C           3.26600        -0.66700        -0.74000
C           4.30700        -0.70900         1.46400
C           3.23900         0.29100         3.39000
H           1.33500         1.19600         3.06200
C           4.34300        -1.33900        -1.26400
H           2.46700        -0.37100        -1.40400
C           5.40200        -1.40200         0.89200
C           4.29400        -0.38400         2.84200
H           3.23300         0.54500         4.44200
C           5.42300        -1.71500        -0.44200
H           4.36600        -1.57700        -2.32000
H           6.23000        -1.68000         1.53400
H           5.13800        -0.67700         3.45600
H           6.26800        -2.24200        -0.86700

