%nprocshared=14
%mem=8GB
# nmr=giao b3lyp/def2TZVP pop=nbo scfcyc=200

Ligand 48 SPE NoRh 

0  1
P          -2.39700        -0.99400        -0.35400
P           0.44500        -1.02200        -0.16600
C           0.70700        -0.94500         2.63700
H           0.26000         0.03800         2.55400
C          -3.49000        -1.82200         0.93400
H          -3.68200        -2.82300         0.53500
C          -2.77500        -1.96800         2.28000
H          -3.42500        -2.50000         2.97900
H          -2.54300        -0.99500         2.71600
H          -1.84600        -2.53100         2.20400
C          -4.82900        -1.09100         1.09100
H          -5.44600        -1.61800         1.82200
H          -5.39700        -1.04100         0.16300
H          -4.69100        -0.07300         1.46100
C          -3.41700        -1.00800        -1.94000
H          -4.24100        -0.32200        -1.72100
C          -4.00000        -2.38300        -2.28500
H          -3.21400        -3.12300        -2.45600
H          -4.58100        -2.31200        -3.20700
H          -4.66400        -2.76800        -1.51100
C          -2.62300        -0.42600        -3.11600
H          -2.19800         0.55000        -2.88000
H          -3.28100        -0.31200        -3.98100
H          -1.80600        -1.08400        -3.42100
C          -0.96900        -2.15600        -0.67900
H          -0.93400        -2.35100        -1.74900
H          -1.00100        -3.10800        -0.14900
C           1.85700        -1.44200        -1.31300
C           1.71500        -2.55900        -2.14800
H           0.83700        -3.18400        -2.08200
C           2.68700        -2.91200        -3.07500
H           2.54400        -3.78500        -3.69900
C           3.83100        -2.13600        -3.19200
H           4.59800        -2.39000        -3.91300
C           3.99700        -1.03900        -2.36000
H           4.90600        -0.45500        -2.42500
C           3.04000        -0.67300        -1.40400
C           3.70900         1.72400        -1.12500
H           3.59400         1.84900        -2.19500
C           3.39700         0.49000        -0.53800
C           4.17200         2.78300        -0.35500
H           4.40900         3.72800        -0.82900
C           4.34600         2.62700         1.01700
H           4.72200         3.44700         1.61500
C           4.05300         1.40400         1.61000
H           4.21100         1.26400         2.67300
C           3.58500         0.34300         0.84000
H           3.40600        -0.61400         1.30800
C           0.93700        -1.69700         1.48500
C           1.52500        -2.96100         1.59500
H           1.73100        -3.55100         0.71000
C           1.87100        -3.46300         2.84400
H           2.33000        -4.44100         2.92100
C           1.63700        -2.70900         3.99100
H           1.91100        -3.10100         4.96200
C           1.05500        -1.45000         3.88600
H           0.87500        -0.86000         4.77600

