%nprocshared=14
%mem=8GB
# nmr=giao b3lyp/def2TZVP pop=nbo scfcyc=200

Ligand 50 SPE NoRh 

0  1
C           3.56800         0.85000         1.33500
C           4.71900         1.64200         1.37300
H           5.14400         2.05200         0.47100
C           5.34200         1.92500         2.58500
H           6.23300         2.54100         2.59600
C           4.82500         1.42600         3.77500
H           5.31100         1.65000         4.71600
C           3.68200         0.63100         3.74800
H           3.27600         0.23300         4.66900
C           3.06500         0.33900         2.53900
H           2.18300        -0.29000         2.52900
C           3.60400         0.81900        -1.77200
C           2.76200         0.28200        -2.94400
H           1.80500         0.79800        -3.02400
H           2.57300        -0.78900        -2.85300
H           3.30800         0.45200        -3.87500
C           4.93700         0.04600        -1.71200
H           4.79000        -1.02100        -1.54700
H           5.61000         0.41700        -0.94100
H           5.44200         0.15900        -2.67400
C           3.87100         2.31400        -2.00200
H           4.47900         2.41600        -2.90500
H           4.41900         2.79000        -1.19100
H           2.95200         2.86900        -2.15900
C           0.59900         2.60000         0.08000
H          -0.47000         2.48800         0.27300
C           1.20900         3.21400         1.33800
H           1.06600         2.55200         2.18900
H           0.71500         4.16000         1.56100
H           2.27700         3.40400         1.23600
C           0.70000         3.47300        -1.16900
C           0.07200         3.06500        -2.35100
H          -0.45200         2.11900        -2.37700
C           0.10200         3.86300        -3.48800
H          -0.39300         3.53000        -4.39100
C           0.75300         5.09400        -3.46400
H           0.77200         5.71900        -4.34800
C           1.36400         5.51900        -2.29200
H           1.86400         6.47900        -2.25600
C           1.33600         4.71600        -1.15400
H           1.81800         5.07600        -0.25600
C          -2.23500        -0.62100        -1.26000
C          -2.31800        -1.49600        -2.35900
H          -1.53100        -1.47700        -3.10200
C          -3.39500        -2.33100        -2.47000
H          -3.48400        -2.99700        -3.32000
C          -4.39400        -2.35800        -1.46600
C          -5.47100        -3.27800        -1.53100
H          -5.53600        -3.94100        -2.38600
C          -6.40400        -3.34100        -0.53000
H          -7.21900        -4.05100        -0.58700
C          -6.29200        -2.48800         0.58700
H          -7.01700        -2.55900         1.38900
C          -5.27400        -1.57200         0.67100
H          -5.20400        -0.93100         1.53800
C          -4.30300        -1.46000        -0.35600
C          -3.21800        -0.51800        -0.29900
C          -3.12300         0.52500         0.75700
C          -4.17900         1.47600         0.98200
C          -5.29900         1.59400         0.12100
H          -5.37200         0.95300        -0.74600
C          -6.28500         2.51800         0.36200
H          -7.12600         2.59300        -0.31700
C          -6.21400         3.37500         1.47900
H          -7.00400         4.09200         1.66000
C          -5.13500         3.30600         2.32000
H          -5.05800         3.97300         3.17100
C          -4.08900         2.37800         2.08900
C          -2.94500         2.34400         2.92200
H          -2.89300         3.01100         3.77400
C          -1.90400         1.50200         2.64300
H          -1.01300         1.47900         3.25500
C          -1.99500         0.62900         1.54300
N           1.05800         1.17800        -0.12500
O          -1.09900         0.19900        -1.18700
O          -0.88200        -0.19500         1.32200
P           2.64000         0.36900        -0.19100
P           0.04400        -0.17900        -0.04800

