%nprocshared=14
%mem=8GB
# nmr=giao b3lyp/def2TZVP pop=nbo scfcyc=200

Ligand 58 SPE NoRh 

0  1
P           1.20900         1.59600         0.67400
P          -0.79900        -0.37400         0.26300
C           1.55700         2.69700         3.34100
H           0.58300         2.30200         3.63200
H           1.42300         3.72900         3.02600
H           2.17700         2.70900         4.24100
C           2.25600         1.83200         2.27900
C           3.62200         2.44800         1.93700
H           4.26500         2.39300         2.81900
H           3.54400         3.49900         1.66300
H           4.13200         1.91900         1.13000
C           2.47800         0.42700         2.86900
H           2.97500        -0.24300         2.16900
H           1.54500        -0.04500         3.17900
H           3.10400         0.51500         3.76100
C           0.99100         3.23600        -0.31200
C           2.29200         3.57200        -1.06100
H           3.13700         3.74700        -0.39900
H           2.13500         4.48600        -1.63900
H           2.56300         2.78700        -1.76800
C           0.57900         4.42200         0.57100
H          -0.29200         4.20400         1.19100
H           0.31200         5.26400        -0.07400
H           1.38900         4.75800         1.21700
C          -0.10400         2.98600        -1.36300
H           0.12800         2.13200        -2.00000
H          -0.17700         3.86900        -2.00400
H          -1.08800         2.82700        -0.92200
C          -0.51200         1.15600         1.30400
H          -0.47900         0.90000         2.36100
H          -1.26600         1.92900         1.17100
C          -1.46700        -1.72100         1.33400
C          -1.05600        -1.87800         2.66100
H          -0.38200        -1.16700         3.12100
C          -1.50900        -2.95400         3.41700
H          -1.19200        -3.05700         4.44700
C          -2.36600        -3.89400         2.85300
H          -2.71800        -4.73000         3.44200
C          -2.76800        -3.75200         1.52900
H          -3.43700        -4.47800         1.08400
C          -2.32100        -2.67500         0.77200
H          -2.65700        -2.57100        -0.25200
C          -2.14600         0.02000        -0.93200
C          -3.44600         0.47500        -0.53000
C          -1.84800        -0.11400        -2.27200
C          -3.85400         0.63100         0.81900
C          -4.39500         0.79500        -1.55500
C          -2.79400         0.18800        -3.27200
H          -0.86000        -0.44300        -2.56500
C          -5.11100         1.08500         1.13600
H          -3.17800         0.36800         1.62000
C          -5.68300         1.26100        -1.19200
C          -4.03700         0.63700        -2.91700
H          -2.52800         0.06900        -4.31400
C          -6.03600         1.40800         0.12400
H          -5.39700         1.18900         2.17500
H          -6.38900         1.49700        -1.97900
H          -4.77000         0.88000        -3.67700
H          -7.02300         1.76300         0.39000

