%nprocshared=14
%mem=8GB
# nmr=giao b3lyp/def2TZVP pop=nbo scfcyc=200

Ligand 59 SPE NoRh 

0  1
P          -0.82200         1.80800        -0.35000
P           0.61200        -0.61500        -0.00100
C          -0.25300         3.45300        -2.67100
H           0.66600         2.89000        -2.84000
H          -0.00600         4.33800        -2.09100
H          -0.60400         3.79200        -3.65000
C          -1.36000         2.60300        -2.02400
C          -2.61700         3.46600        -1.83100
H          -3.00500         3.74900        -2.81300
H          -2.40500         4.38800        -1.29200
H          -3.41500         2.93700        -1.30700
C          -1.69500         1.43800        -2.97500
H          -2.48500         0.79900        -2.58300
H          -0.82900         0.81000        -3.18300
H          -2.03200         1.85000        -3.93000
C          -0.54700         3.11400         1.03600
C          -1.90400         3.61200         1.56200
H          -2.49900         4.11900         0.80600
H          -1.72400         4.32800         2.36900
H          -2.49700         2.79800         1.98100
C           0.30400         4.31000         0.58400
H           1.24300         4.00600         0.11800
H           0.55700         4.91200         1.46100
H          -0.23100         4.96000        -0.10600
C           0.16900         2.39200         2.19000
H          -0.37800         1.50800         2.52300
H           0.24000         3.07700         3.03900
H           1.18400         2.09000         1.93300
C           0.88000         1.08900        -0.71300
H           1.04400         1.02500        -1.78700
H           1.72300         1.62700        -0.28600
C           1.21000        -1.90000        -1.18400
C           1.15800        -1.71200        -2.56800
H           0.83800        -0.76800        -2.98800
C           1.52700        -2.73600        -3.43300
H           1.49300        -2.57200        -4.50200
C           1.93800        -3.96600        -2.92800
H           2.22600        -4.76200        -3.60300
C           1.97900        -4.16600        -1.55200
H           2.29900        -5.12000        -1.15000
C           1.61500        -3.14200        -0.68400
H           1.66900        -3.31100         0.38500
C           1.66600        -0.79800         1.51200
C           1.02500        -1.35600         2.62500
H          -0.02100        -1.61900         2.55200
C           1.69200        -1.55500         3.82600
H           1.17200        -1.99300         4.66900
C           3.02200        -1.17400         3.93600
H           3.55900        -1.31800         4.86500
C           3.66500        -0.60000         2.84700
H           4.70200        -0.30300         2.93500
C           3.02000        -0.40400         1.62000
C           3.81600         0.25200         0.53900
C           4.18800        -0.42000        -0.62800
H           3.88400        -1.44600        -0.77900
C           4.97700         0.21000        -1.58700
H           5.26700        -0.33200        -2.47900
C           5.40800         1.51800        -1.39500
H           6.02500         2.00300        -2.14100
C           5.05700         2.19200        -0.23000
H           5.40200         3.20500        -0.06200
C           4.27500         1.56200         0.73200
H           4.01800         2.08900         1.64400

