%nprocshared=14
%mem=8GB
# nmr=giao b3lyp/def2TZVP pop=nbo scfcyc=200

Ligand 5 SPE NoRh 

0  1
C          -0.17500        -2.04200         0.92200
H           0.40100        -2.09200         1.84700
H          -0.58000        -3.02700         0.69100
C           0.31100        -2.02400        -1.98000
H           0.50800        -3.09700        -1.94800
H           0.86000        -1.58700        -2.81400
H          -0.75300        -1.84700        -2.13000
C          -1.89200        -0.57900         2.86400
H          -2.30700        -1.53200         3.19200
H          -2.64300         0.19800         3.00500
H          -1.01700        -0.34000         3.46800
P           0.85700        -1.22700        -0.40300
P          -1.40600        -0.63700         1.08300
C          -2.92000        -1.17100         0.18800
C          -3.62300        -2.31700         0.57600
C          -3.37900        -0.42100        -0.89800
C          -4.76800        -2.70100        -0.11200
H          -3.28700        -2.91800         1.41300
C          -4.52600        -0.80900        -1.58400
H          -2.83600         0.46400        -1.20700
C          -5.22100        -1.94700        -1.19200
H          -5.30700        -3.58800         0.19500
H          -4.87600        -0.22100        -2.42300
H          -6.11400        -2.24800        -1.72400
C           2.60500        -1.76300        -0.21000
C           3.58200        -1.13400        -0.99000
C           2.98300        -2.78400         0.66500
C           4.91200        -1.52500        -0.90000
H           3.31100        -0.34200        -1.67900
C           4.31700        -3.16800         0.75700
H           2.24700        -3.29400         1.27400
C           5.28200        -2.54100        -0.02200
H           5.65900        -1.03600        -1.51100
H           4.60000        -3.96200         1.43800
H           6.31900        -2.84300         0.05100

