%nprocshared=14
%mem=8GB
# nmr=giao b3lyp/def2TZVP pop=nbo scfcyc=200

Ligand 61 SPE NoRh 

0  1
C          -3.46700         1.37100         0.07800
C          -4.39600         2.06400         0.85900
H          -4.52000         1.83900         1.90700
C          -5.17900         3.06900         0.30100
H          -5.89500         3.59500         0.92100
C          -5.04600         3.39900        -1.04300
H          -5.65800         4.18100        -1.47400
C          -4.12500         2.71600        -1.83100
H          -4.01600         2.96500        -2.87900
C          -3.34800         1.70700        -1.27600
H          -2.63700         1.17400        -1.89600
C          -3.08800        -0.76500         2.27200
C          -2.23000        -2.00800         2.56200
H          -1.20200        -1.74100         2.80500
H          -2.21600        -2.70300         1.72100
H          -2.64800        -2.53000         3.42600
C          -4.51900        -1.21000         1.90500
H          -4.55300        -1.79100         0.98200
H          -5.20700        -0.37300         1.80000
H          -4.89600        -1.85100         2.70600
C          -3.11600         0.09900         3.53900
H          -3.64300        -0.46000         4.31700
H          -3.63600         1.04700         3.41800
H          -2.11600         0.30900         3.90400
C          -0.19600         1.93200         1.58200
H           0.86000         1.91700         1.30700
C          -0.78800         3.21100         0.99600
H          -0.66200         3.22000        -0.08200
H          -0.26300         4.07500         1.40500
H          -1.84800         3.32400         1.21400
C          -0.22300         1.88000         3.10600
C           0.58800         0.95700         3.77300
H           1.19400         0.27300         3.19400
C           0.63100         0.91200         5.16000
H           1.26700         0.18900         5.65600
C          -0.12800         1.80500         5.91200
H          -0.09000         1.77800         6.99400
C          -0.92000         2.74400         5.26300
H          -1.50200         3.45400         5.83700
C          -0.96400         2.78300         3.87100
H          -1.58400         3.52900         3.39300
C           2.61000        -1.30200         0.56000
C           3.00100        -2.58200         0.98200
C           4.25900        -2.99100         0.53400
H           4.61900        -3.96800         0.81900
C           3.45800        -0.44000        -0.14600
C           3.10500         0.99500        -0.36200
C           2.72900         3.67900        -1.12200
C           1.87600         2.68700        -1.67600
C           1.99900         1.40000        -1.10900
N          -0.73900         0.69900         0.89600
O           1.35600        -0.78600         0.94500
O           0.99600         0.43400        -1.31400
P          -2.36400         0.01400         0.68100
P           0.16700        -0.33500        -0.11600
C           3.74100         3.32800        -0.20200
C           3.96000         1.99200         0.09700
H           4.80700         1.71200         0.71000
C           4.69800        -0.91900        -0.61700
C           5.09000        -2.21900        -0.26900
C           2.17800        -3.49200         1.92100
C           0.88300        -3.96300         1.23300
H           0.30700        -4.59600         1.91300
H           0.24600        -3.13300         0.93100
H           1.11800        -4.55600         0.34700
C           1.84400        -2.74300         3.22900
H           2.75700        -2.40700         3.72500
H           1.21300        -1.87700         3.05100
H           1.31700        -3.41100         3.91500
C           2.95600        -4.76000         2.32200
H           3.18800        -5.39500         1.46500
H           3.88700        -4.52500         2.84100
H           2.34200        -5.34900         3.00500
C           1.01900         2.96000        -2.96000
C           1.95200         3.59600        -4.02700
H           2.35900         4.56200        -3.74700
H           2.79000         2.93000        -4.24100
H           1.39200         3.73500        -4.95400
C           0.48900         1.68100        -3.65000
H           1.28200         0.95200        -3.82400
H          -0.30300         1.19500        -3.08700
H           0.08400         1.96700        -4.62200
C          -0.21400         3.85500        -2.71300
H          -0.97100         3.31900        -2.13900
H           0.00500         4.77800        -2.18300
H          -0.66500         4.12400        -3.67200
C           6.40700        -2.78900        -0.73300
H           7.24700        -2.14600        -0.46200
H           6.58100        -3.77000        -0.29200
H           6.43500        -2.90700        -1.82000
C           5.60000        -0.09400        -1.50400
H           5.09000         0.76600        -1.92800
H           6.47600         0.27500        -0.96100
H           5.97800        -0.70200        -2.32800
C           4.64300         4.36800         0.41300
H           5.15700         4.96700        -0.34300
H           4.08800         5.06600         1.04500
H           5.40200         3.89600         1.03600
C           2.62100         5.15900        -1.42800
H           3.50900         5.52600        -1.95000
H           1.75800         5.43000        -2.02000
H           2.55900         5.72000        -0.49300

