%nprocshared=14
%mem=8GB
# nmr=giao b3lyp/def2TZVP pop=nbo scfcyc=200

Ligand 62 SPE NoRh 

0  1
P          -0.48500        -1.17000         0.18000
P           0.62800         1.28300         0.26000
N          -0.72800         0.39300         0.92500
C          -0.50300        -2.45100         1.50300
C          -0.65000        -3.79400         1.13400
C          -0.54700        -4.80100         2.08600
C          -0.29900        -4.48300         3.41800
C          -0.14900        -3.15200         3.79200
C          -0.24200        -2.14300         2.84000
C          -1.90300        -1.60300        -0.90900
C          -1.78800        -1.33000        -2.27500
C          -2.83500        -1.62100        -3.14200
C          -4.00500        -2.18900        -2.65100
C          -4.12600        -2.46600        -1.29200
C          -3.08200        -2.17800        -0.42300
C           0.04500         2.69900        -0.76600
C          -0.35000         3.93500        -0.24000
C          -0.80600         4.94300        -1.08100
C          -0.87200         4.73200        -2.45600
C          -0.47600         3.51100        -2.98900
C          -0.01900         2.50100        -2.14900
C           1.65500         2.01400         1.60500
C           2.34600         3.21400         1.41000
C           3.24000         3.67700         2.37200
C           3.46000         2.94700         3.53400
C           2.79400         1.73900         3.72500
C           1.90800         1.27100         2.76400
C          -1.88500         0.76000         1.79800
C          -1.59500         1.98000         2.67900
C          -3.22000         0.92900         1.08000
C          -3.35600         1.57700        -0.14600
C          -4.61400         1.76900        -0.70900
C          -5.75500         1.32300        -0.05200
C          -5.63100         0.67700         1.17400
C          -4.37200         0.48000         1.73000
H          -0.85600        -4.06000         0.10500
H          -0.66600        -5.83500         1.78700
H          -0.22500        -5.26800         4.16000
H           0.04000        -2.89700         4.82800
H          -0.11800        -1.11400         3.14700
H          -0.87500        -0.89000        -2.65800
H          -2.73600        -1.40900        -4.19900
H          -4.82100        -2.42000        -3.32500
H          -5.03800        -2.90600        -0.90700
H          -3.19000        -2.40100         0.62900
H          -0.29800         4.12300         0.82300
H          -1.11000         5.89300        -0.66200
H          -1.22700         5.52000        -3.10800
H          -0.51900         3.34400        -4.05800
H           0.29300         1.55100        -2.56600
H           2.19600         3.79600         0.51100
H           3.76200         4.61100         2.20900
H           4.15200         3.31100         4.28300
H           2.97000         1.15800         4.62200
H           1.41700         0.32000         2.91500
H          -2.00700        -0.09200         2.47200
H          -2.48200         1.93000        -0.67400
H          -4.70100         2.27100        -1.66500
H          -6.73300         1.47700        -0.49100
H          -6.51200         0.32300         1.69500
H          -4.28700        -0.02900         2.68500
H          -2.43900         2.12800         3.35200
H          -1.49700         2.88700         2.08400
H          -0.69700         1.84800         3.27900

