%nprocshared=14
%mem=8GB
# nmr=giao b3lyp/def2TZVP pop=nbo scfcyc=200

Ligand 64a SPE NoRh 

0  1
P          -0.63000         1.22900         0.14100
P           0.59200        -1.15000         0.10000
N          -1.60100         1.82400         1.49900
N          -1.52700         1.14000         2.69200
N           0.74800         0.45100         0.81000
C           1.97800        -1.37800        -2.29200
H           1.05300        -1.01400        -2.72300
C           0.21700         3.94500         0.13100
H           0.05500         3.95400         1.20100
C           1.78900         1.07100         1.69900
H           1.47800         2.11700         1.75900
C           0.47800        -2.42400         1.41900
C           3.18700         1.08100         1.07600
C           1.73700         0.51700         3.12200
H           0.72100         0.58900         3.50000
H           2.38900         1.10700         3.76900
H           2.05900        -0.52300         3.17400
C           0.98600        -3.71400         1.22200
H           1.56500        -3.95000         0.33900
C           2.07200        -1.55300        -0.90800
C          -0.29600        -2.15700         2.55500
H          -0.71700        -1.17000         2.70400
C           3.27100        -2.02000        -0.35800
H           3.36900        -2.15400         0.71000
C          -0.07800         2.80200        -0.62000
C           0.11600         2.81800        -2.00400
H          -0.10900         1.93400        -2.58900
C           4.35100        -2.30600        -1.18200
H           5.27600        -2.66200        -0.74700
C           0.00600        -4.43100         3.30500
H          -0.17100        -5.20600         4.04000
C           0.75100        -4.71000         2.16600
H           1.15600        -5.70100         2.00700
C           4.24700        -2.13400        -2.55900
H           5.09200        -2.36300        -3.19800
C           4.30300         0.61300         1.77200
H           4.19400         0.17900         2.75600
C           3.38900         1.65000        -0.18500
H           2.54500         2.02900        -0.74500
C          -2.54700         1.56700         3.41800
C           3.06100        -1.66700        -3.11400
H           2.97700        -1.53200        -4.18500
C           4.66000         1.74000        -0.73600
H           4.79000         2.18800        -1.71400
C          -2.72000         2.64000         1.46800
C          -3.14400         3.49500         0.31700
H          -2.50400         4.36900         0.19500
H          -4.16000         3.84500         0.49500
H          -3.14000         2.95600        -0.63200
C          -0.51800        -3.15500         3.49500
H          -1.10600        -2.93700         4.37700
C           5.76400         1.26800        -0.03300
H           6.75700         1.34500        -0.45800
C           0.60100         3.96000        -2.63000
H           0.74400         3.96800        -3.70400
C          -3.32300         2.50300         2.69200
H          -4.21100         3.01700         3.02400
C           0.89800         5.09200        -1.87800
H           1.27500         5.98200        -2.36500
C           0.70700         5.08300        -0.49900
H           0.93700         5.96400         0.08700
C           5.58000         0.70400         1.22300
H           6.43100         0.34000         1.78600
C          -2.76200         1.07700         4.81200
H          -2.02100         0.32100         5.07000
H          -3.75700         0.64100         4.92500
H          -2.68000         1.89400         5.53200

