%nprocshared=14
%mem=8GB
# nmr=giao b3lyp/def2TZVP pop=nbo scfcyc=200

Ligand 72 SPE NoRh 

0  1
P           0.44200        -1.23900         0.11200
P          -0.59500         1.28700         0.05100
N           0.88500         0.40800         0.51400
C           1.57600        -1.89600        -1.17800
C           2.77200        -2.54700        -0.85700
H           3.06300        -2.67500         0.17700
C           3.59300        -3.03500        -1.86700
H           4.51400        -3.54300        -1.61100
C           3.23500        -2.87300        -3.20300
H           3.87600        -3.25800        -3.98600
C           2.04900        -2.22200        -3.53000
H           1.76400        -2.10100        -4.56700
C           1.22100        -1.74100        -2.52200
H           0.28700        -1.25400        -2.77600
C           0.73700        -2.33700         1.55900
C           0.98300        -1.85100         2.84300
H           1.10300        -0.79200         3.00800
C           1.10400        -2.72800         3.91700
H           1.30900        -2.33800         4.90500
C           0.96800        -4.09800         3.72200
H           1.06200        -4.77800         4.55900
C           0.71700        -4.59100         2.44500
H           0.61600        -5.65700         2.28400
C           0.60200        -3.71900         1.37000
H           0.42500        -4.12300         0.38000
C          -0.21100         2.52400        -1.26000
C           0.26100         3.81500        -0.99700
H           0.39600         4.15300         0.02100
C           0.56200         4.68000        -2.04300
H           0.92600         5.67700        -1.82600
C           0.39600         4.27000        -3.36200
H           0.62900         4.94700        -4.17400
C          -0.07400         2.98900        -3.63500
H          -0.21100         2.66700        -4.66000
C          -0.37900         2.12400        -2.59100
H          -0.75000         1.12900        -2.80600
C          -1.25600         2.23300         1.48700
C          -1.22300         1.64900         2.75900
H          -0.72600         0.70100         2.90700
C          -1.84100         2.27000         3.83700
H          -1.79700         1.81200         4.81700
C          -2.52300         3.47000         3.65600
H          -3.00600         3.95300         4.49600
C          -2.59200         4.04000         2.39000
H          -3.13200         4.96600         2.23800
C          -1.96600         3.42500         1.30900
H          -2.04000         3.88200         0.33200
C           2.97300         1.57700        -0.12500
C           2.35800         1.44500         2.19000
C           3.34800         2.91400         0.57300
H           2.34600         1.75000        -0.99900
C           2.56600         2.93100         1.89500
H           3.25300         1.02000         2.65000
H           1.50600         1.24600         2.83200
H           4.41800         2.92900         0.77500
H           3.11600         3.76900        -0.06200
H           3.10400         3.44200         2.69300
H           1.60000         3.42900         1.78300
N           2.18200         0.79300         0.87300
C           4.20900         0.82400        -0.60200
H           4.73200         1.45200        -1.34000
H           3.92100        -0.10800        -1.10100
C           6.28300        -0.04400         0.12900
H           6.86100         0.61000        -0.53600
H           6.85000        -0.21100         1.04300
H           6.12800        -1.00600        -0.37600
O           5.05300         0.55200         0.50100

