%nprocshared=14
%mem=8GB
# nmr=giao b3lyp/def2TZVP pop=nbo scfcyc=200

Ligand 74 SPE NoRh 

0  1
P          -0.06000        -1.32600        -0.13900
P           0.41900         1.29200         0.30900
N          -0.90500         0.21100        -0.08800
C          -0.62900        -2.44600         1.21600
C          -1.56200        -3.46900         1.02100
H          -1.99800        -3.63200         0.04500
C          -1.93800        -4.28600         2.08100
H          -2.66000        -5.07600         1.91800
C          -1.39200        -4.08900         3.34500
H          -1.68700        -4.72800         4.16900
C          -0.46000        -3.07700         3.54800
H          -0.02500        -2.92500         4.52800
C          -0.07500        -2.26500         2.48700
H           0.66700        -1.49100         2.64300
C          -0.44100        -2.22200        -1.69700
C          -1.09600        -1.61900        -2.77200
H          -1.50400        -0.62200        -2.68400
C          -1.25900        -2.31800        -3.96600
H          -1.78100        -1.84600        -4.78900
C          -0.76200        -3.60900        -4.10300
H          -0.89000        -4.14600        -5.03400
C          -0.10000        -4.21100        -3.03600
H           0.28700        -5.21700        -3.13200
C           0.06200        -3.52300        -1.84000
H           0.56800        -4.01200        -1.01600
C           0.01100         2.09300         1.91500
C          -0.96000         3.09700         2.02800
H          -1.48100         3.45900         1.15200
C          -1.26100         3.63900         3.27200
H          -2.01500         4.41200         3.35100
C          -0.59700         3.19300         4.41200
H          -0.83200         3.62200         5.37800
C           0.37000         2.20000         4.30700
H           0.89300         1.85500         5.19100
C           0.67100         1.65100         3.06600
H           1.42500         0.87800         2.98700
C           0.48500         2.65300        -0.92700
C           0.29400         2.36500        -2.28300
H          -0.01900         1.37800        -2.59200
C           0.49100         3.35000        -3.24200
H           0.32600         3.12000        -4.28700
C           0.90300         4.62500        -2.86400
H           1.06200         5.39000        -3.61400
C           1.11600         4.91300        -1.52000
H           1.44100         5.90100        -1.21900
C           0.91000         3.93300        -0.55400
H           1.07900         4.17400         0.48700
C          -2.33600         0.58900         0.03100
H          -2.44300         1.17400         0.94600
C          -2.75600         1.48600        -1.14200
C          -3.30000        -0.60200         0.12000
H          -3.19600        -1.22200        -0.77400
H          -3.01200        -1.20700         0.97900
C          -3.68000         3.58800        -1.72600
H          -4.01300         4.46900        -1.18700
H          -2.88100         3.83800        -2.42200
H          -4.50700         3.13300        -2.26900
O          -2.73300         1.15700        -2.30300
O          -3.18900         2.67900        -0.71200
C          -4.76500        -0.17900         0.28100
H          -5.09100         0.38900        -0.59600
H          -4.86000         0.49400         1.14000
C          -5.70300        -1.37500         0.47000
H          -5.38800        -1.94400         1.35100
H          -5.60000        -2.05200        -0.38500
C          -7.16800        -0.96600         0.62300
H          -7.52300        -0.42800        -0.25900
H          -7.81000        -1.83900         0.75700
H          -7.31000        -0.31500         1.48900

