%nprocshared=14
%mem=8GB
# nmr=giao b3lyp/def2TZVP pop=nbo scfcyc=200

Ligand 75 SPE NoRh 

0  1
P          -0.87900         1.05400        -0.11800
P           0.87200        -0.95700         0.30600
N           0.85400         0.77700         0.02600
C          -1.53900         2.08600         1.26500
C          -1.74100         3.46500         1.16000
H          -1.49800         3.98600         0.24300
C          -2.26600         4.18100         2.23000
H          -2.41900         5.24900         2.13600
C          -2.59400         3.53000         3.41500
H          -3.00300         4.09100         4.24600
C          -2.40400         2.15700         3.52700
H          -2.66900         1.64400         4.44300
C          -1.88700         1.43800         2.45500
H          -1.76000         0.36500         2.53600
C          -1.30500         2.00700        -1.63300
C          -0.40200         2.24300        -2.66800
H           0.63600         1.95800        -2.57100
C          -0.82900         2.87900        -3.83200
H          -0.11500         3.07000        -4.62400
C          -2.15500         3.26800        -3.98000
H          -2.48100         3.76000        -4.88700
C          -3.06300         3.02500        -2.95200
H          -4.09800         3.32700        -3.05600
C          -2.64400         2.39800        -1.78600
H          -3.36300         2.23000        -0.99300
C           1.69500        -1.22800         1.92900
C           3.08300        -1.12900         2.09600
H           3.72600        -0.93100         1.24800
C           3.64900        -1.29300         3.35400
H           4.72200        -1.21300         3.47400
C           2.84300        -1.56300         4.45600
H           3.28900        -1.69600         5.43400
C           1.46500        -1.66800         4.29900
H           0.83500        -1.88400         5.15300
C           0.89400        -1.49900         3.04300
H          -0.17900        -1.58100         2.92300
C           1.94700        -1.77600        -0.94300
C           1.88300        -1.37400        -2.28100
H           1.31300        -0.49900        -2.56100
C           2.56400        -2.08600        -3.26000
H           2.51900        -1.75500        -4.29000
C           3.29700        -3.22000        -2.92100
H           3.82300        -3.77600        -3.68700
C           3.34600        -3.64000        -1.59700
H           3.90900        -4.52500        -1.32600
C           2.67400        -2.92500        -0.61000
H           2.72200        -3.26800         0.41500
C           2.05600         1.63000         0.21000
H           2.61800         1.19700         1.03800
C           2.98500         1.54900        -1.00900
C           1.75500         3.10500         0.60600
H           0.83800         3.40000         0.09100
C           5.24900         1.27000        -1.65300
H           6.18500         1.06900        -1.14100
H           5.02600         0.48600        -2.37400
H           5.28800         2.23300        -2.16000
O           2.66800         1.71400        -2.16100
O           4.24100         1.29300        -0.61500
C           1.55400         3.20400         2.12200
H           1.18200         4.19200         2.39700
H           0.84800         2.46600         2.50000
H           2.50700         3.05300         2.63600
C           2.85100         4.08700         0.16600
H           3.81800         3.82700         0.60200
H           2.96000         4.13200        -0.91800
H           2.59600         5.09000         0.51100

