%nprocshared=14
%mem=8GB
# nmr=giao b3lyp/def2TZVP pop=nbo scfcyc=200

Ligand 77 SPE NoRh 

0  1
C           0.00000        -2.33900         0.00000
H           0.34000        -2.97900         0.81300
H          -0.34000        -2.98000        -0.81300
C           1.41900        -1.42300        -2.39400
H           1.75000        -2.44200        -2.59500
H           2.11600        -0.72200        -2.85000
H           0.44000        -1.26800        -2.84500
C           2.97100        -1.59700         0.18600
C           4.01500        -0.67600        -0.51700
H           3.58300         0.32600        -0.61500
H           4.11800        -1.05400        -1.53800
C           3.22900        -3.08600        -0.10100
H           3.35900        -3.28400        -1.16600
H           2.41900        -3.71900         0.26600
H           4.13800        -3.41500         0.40100
C           2.84100        -1.37800         1.70100
H           3.75300        -1.69000         2.20800
H           2.03200        -1.98100         2.11900
H           2.65000        -0.33400         1.95300
C          -1.41900        -1.42300         2.39400
H          -1.75000        -2.44200         2.59600
H          -2.11700        -0.72200         2.85000
H          -0.44000        -1.26800         2.84500
C          -2.97100        -1.59700        -0.18600
C          -3.22900        -3.08600         0.10100
H          -4.13700        -3.41500        -0.40100
H          -3.35900        -3.28400         1.16600
H          -2.41900        -3.71900        -0.26600
C          -4.01500        -0.67600         0.51700
H          -3.58300         0.32600         0.61400
H          -4.11800        -1.05400         1.53800
C          -2.84100        -1.37800        -1.70100
H          -2.03200        -1.98100        -2.11900
H          -2.65000        -0.33400        -1.95300
H          -3.75300        -1.69000        -2.20800
P           1.28500        -1.10000        -0.57600
P          -1.28500        -1.09900         0.57600
C          -5.46900        -0.44600        -0.01500
C          -6.21900        -1.74500        -0.34900
H          -5.80900        -2.25100        -1.22400
H          -6.20900        -2.44500         0.48900
H          -7.26400        -1.52000        -0.57300
C          -5.50300         0.49700        -1.23200
H          -4.98800         1.43700        -1.01800
H          -5.05500         0.06000        -2.12300
H          -6.53800         0.74500        -1.48000
C          -6.22000         0.25600         1.13700
H          -7.23700         0.50900         0.83300
H          -6.28600        -0.38500         2.02000
H          -5.72300         1.18500         1.43100
C           5.46900        -0.44600         0.01400
C           5.50300         0.49700         1.23200
H           4.98800         1.43700         1.01800
H           5.05500         0.06000         2.12200
H           6.53800         0.74500         1.48000
C           6.22000         0.25600        -1.13800
H           7.23700         0.50900        -0.83400
H           6.28500        -0.38500        -2.02000
H           5.72300         1.18500        -1.43100
C           6.21900        -1.74500         0.34900
H           5.80900        -2.25100         1.22400
H           6.20900        -2.44500        -0.48900
H           7.26400        -1.52000         0.57300

