%nprocshared=14
%mem=8GB
# nmr=giao b3lyp/def2TZVP pop=nbo scfcyc=200

Ligand 78 SPE NoRh 

0  1
P           0.93000        -0.24200         1.03300
C          -0.64600         0.54100         1.72900
C          -0.75300        -0.61700         2.81200
C           0.77600        -1.09000         2.74800
P          -1.61100         0.47100         0.12600
C           2.43300         0.89900         0.87500
C           1.97900         2.26200         0.31700
C           3.14100         3.25100         0.13500
C           4.21800         2.62300        -0.75100
C           4.69500         1.28700        -0.18300
C           3.55400         0.26900         0.00700
C           2.64500         4.58900        -0.41700
C           4.06400        -1.10400         0.52200
C           4.78100        -1.89400        -0.58100
C           4.96200        -1.01500         1.76500
C          -1.19500        -0.06200         4.17100
C          -1.71200        -1.75700         2.44400
C           1.04800        -2.59000         2.79900
C          -1.54600         2.18800        -0.55600
C          -1.39400         2.35800        -1.93400
C          -1.42500         3.63000        -2.49600
C          -1.60400         4.74500        -1.68600
C          -1.75700         4.58500        -0.31200
C          -1.73200         3.31400         0.25000
C          -3.41800         0.22500         0.40700
C          -4.13900        -0.56600        -0.48900
C          -5.51400        -0.72200        -0.33600
C          -6.17500        -0.09500         0.71300
C          -5.46100         0.69600         1.61000
C          -4.09000         0.85900         1.45600
H          -0.59600         1.52400         2.19400
H           2.80700         1.04800         1.89100
H           1.23000         2.70700         0.97700
H           1.49000         2.11700        -0.65200
H           3.58500         3.43400         1.12200
H           5.06600         3.30600        -0.85100
H           3.81500         2.47900        -1.76100
H           5.18200         1.47000         0.77900
H           5.45700         0.85600        -0.83700
H           3.11200         0.08900        -0.98100
H           3.47000         5.29700        -0.52100
H           2.18700         4.46200        -1.40200
H           1.89900         5.04100         0.24100
H           3.17800        -1.69200         0.79300
H           5.06700        -2.88400        -0.22000
H           5.69400        -1.39200        -0.90700
H           4.13900        -2.03400        -1.45300
H           4.54700        -0.37500         2.54500
H           5.11300        -2.00600         2.19700
H           5.94900        -0.62200         1.51300
H          -1.14000        -0.83200         4.94500
H          -2.23600         0.26300         4.11300
H          -0.59900         0.78900         4.49800
H          -1.62800        -2.56200         3.17600
H          -1.50800        -2.17400         1.45700
H          -2.74400        -1.41200         2.45500
H           0.75400        -2.99900         3.77000
H           2.11500        -2.78700         2.67800
H           0.51700        -3.14300         2.02700
H          -1.25900         1.49100        -2.56800
H          -1.31200         3.74800        -3.56700
H          -1.62800         5.73600        -2.12200
H          -1.90100         5.45000         0.32300
H          -1.86400         3.21400         1.32000
H          -3.63100        -1.05500        -1.31100
H          -6.06700        -1.33300        -1.03900
H          -7.24400        -0.21800         0.83300
H          -5.97300         1.18900         2.42700
H          -3.55100         1.48200         2.16000
C           1.65200        -0.39000         3.79200
H           1.38300        -0.74100         4.79000
H           2.70200        -0.63200         3.63800
H           1.55100         0.69600         3.78900

