%nprocshared=14
%mem=8GB
# nmr=giao b3lyp/def2TZVP pop=nbo scfcyc=200

Ligand 7 SPE NoRh 

0  1
P          -1.19300        -0.55100         0.83500
P           1.14700        -0.61300        -0.72600
C          -2.94100        -1.06100         0.32300
C          -3.07500        -0.92700        -1.21200
H          -2.83800         0.09500        -1.52200
H          -2.36300        -1.58900        -1.71500
C          -0.00000        -1.81900         0.13600
H           0.49400        -2.38100         0.92800
H          -0.45800        -2.53100        -0.54900
C          -5.50800        -0.34700        -0.97400
H          -6.52600        -0.58500        -1.29700
H          -5.31500         0.68700        -1.27500
C          -3.96500        -0.11800         1.00000
H          -3.75800         0.92300         0.73800
H          -3.89600        -0.19800         2.08900
C          -4.50500        -1.29600        -1.65200
H          -4.57600        -1.19400        -2.73800
C          -5.39400        -0.48900         0.55300
H          -6.09900         0.18900         1.04200
C          -4.69200        -2.88400         0.28300
H          -4.89600        -3.91600         0.58000
C           0.93500        -0.99800        -2.52400
H          -0.10800        -0.83800        -2.79100
H           1.21100        -2.02800        -2.75000
H           1.54500        -0.32400        -3.12400
C          -5.69800        -1.93900         0.96300
H          -6.71700        -2.20500         0.67200
H          -5.64200        -2.04600         2.05100
C          -4.80600        -2.74800        -1.24400
H          -5.81100        -3.02900        -1.57100
H          -4.11000        -3.43300        -1.73900
C          -3.26100        -2.51800         0.73100
H          -3.18100        -2.64000         1.81500
H          -2.54800        -3.21200         0.27500
C           2.92300        -1.09300        -0.28800
C           3.90500        -0.23200        -1.11900
C           3.20100        -2.58600        -0.57800
C           3.16400        -0.81900         1.21600
H           3.75900        -0.41200        -2.18800
H           3.72400         0.83300        -0.94300
C           5.35800        -0.58000        -0.73800
H           3.04400        -2.80800        -1.63700
H           2.51700        -3.22300        -0.01000
C           4.65700        -2.93000        -0.19900
C           4.61900        -1.16700         1.58800
H           2.48200        -1.41900         1.82700
H           2.95800         0.23100         1.44400
C           5.62000        -2.06700        -1.03200
H           6.03300         0.03900        -1.33500
C           5.58000        -0.30000         0.75700
H           4.83100        -3.98800        -0.41100
C           4.87900        -2.65500         1.29800
H           4.76600        -0.96600         2.65200
H           6.65500        -2.32000        -0.78800
H           5.48700        -2.27200        -2.09900
H           6.61500        -0.52200         1.03000
H           5.41700         0.76000         0.97300
H           5.90200        -2.91800         1.57900
H           4.21400        -3.28100         1.90100
C          -1.09600        -0.80300         2.66700
H          -1.74600        -0.09400         3.17800
H          -1.38100        -1.81700         2.94800
H          -0.07200        -0.61600         2.98800

