%nprocshared=14
%mem=8GB
# nmr=giao b3lyp/def2TZVP pop=nbo scfcyc=200

Ligand 83 SPE NoRh 

0  1
P          -2.53100        -0.90600         0.32700
P           0.05400        -0.22600        -0.22700
C           4.29600        -1.91400        -0.41800
O           1.13300        -0.29100        -1.47000
C           3.24600        -0.93700        -0.49800
O           1.01900        -0.37100         1.10900
C          -0.91600        -1.79100        -0.09800
H          -0.56300        -2.51400         0.63700
H          -0.98900        -2.26300        -1.07900
C           4.31500        -3.00300        -1.34700
C           2.23100        -1.16800        -1.40300
C           6.32800        -3.87500        -0.31200
H           7.11600        -4.61500        -0.26300
C           6.37200         2.12900        -0.42800
H           7.19800         2.07800        -1.12700
C           5.37600         1.18700        -0.48400
H           5.42500         0.40200        -1.22500
C           2.24100        -2.23100        -2.32300
H           1.43300        -2.31500        -3.03800
C           2.11800         0.49800         1.18500
C           5.35800        -3.96000        -1.27600
H           5.36700        -4.77200        -1.99400
C           4.27700         1.23000         0.41100
C           5.30400        -1.87300         0.58000
H           5.28900        -1.08300         1.31700
C           3.21300         0.26700         0.37900
C           6.28800        -2.82800         0.63100
H           7.04200        -2.77800         1.40700
C           4.21700         2.30900         1.35100
C           5.27300         3.25400         1.39200
H           5.22200         4.05700         2.11800
C           3.28000        -3.12000        -2.30500
H           3.31100        -3.93600        -3.01700
C           2.04900         1.55100         2.11400
H           1.17400         1.63600         2.74500
C           6.33100         3.16700         0.52600
H           7.12900         3.89700         0.56300
C           3.09600         2.42700         2.20700
H           3.06900         3.23400         2.93000
C          -3.89200        -1.74300        -0.58500
C          -3.75700        -1.96400        -1.96100
C          -5.09400        -2.07600         0.04600
C          -4.79500        -2.53600        -2.68500
H          -2.84500        -1.68400        -2.47600
C          -6.13300        -2.64200        -0.68600
H          -5.22100        -1.90600         1.10700
C          -5.98500        -2.87700        -2.04800
H          -4.67600        -2.71300        -3.74600
H          -7.05800        -2.90200        -0.18700
H          -6.79400        -3.32200        -2.61300
C          -2.80200        -1.23600         2.11200
C          -2.92400        -0.16500         3.00000
C          -2.86100        -2.54600         2.60000
C          -3.11100        -0.40000         4.35900
H          -2.86200         0.85100         2.63100
C          -3.04500        -2.77600         3.95700
H          -2.77100        -3.39000         1.92600
C          -3.17100        -1.70300         4.83700
H          -3.20400         0.43500         5.04200
H          -3.09000        -3.79200         4.33000
H          -3.31400        -1.88600         5.89500

