%nprocshared=14
%mem=8GB
# nmr=giao b3lyp/def2TZVP pop=nbo scfcyc=200

Ligand 85 SPE NoRh 

0  1
P          -2.39900        -0.73100         0.11800
P           0.20100        -0.11800        -0.41500
C           4.36200        -2.00300        -0.50100
O           1.34800        -0.14000        -1.59500
C           3.36800        -0.96700        -0.56400
O           1.08400        -0.40200         0.96100
C          -0.83600        -1.63700        -0.43900
H          -0.49700        -2.47200         0.17400
H          -0.95400        -1.96000        -1.47400
C           4.38000        -3.02100        -1.50700
C           2.39700        -1.07700        -1.53700
C           6.28400        -4.07300        -0.43400
H           7.03000        -4.85600        -0.39900
C           6.63200         1.91400        -0.10200
H           7.49300         1.86900        -0.75700
C           5.59600         1.03200        -0.27900
H           5.64800         0.30100        -1.07300
C           2.40600        -2.06900        -2.53200
H           1.63800        -2.05700        -3.29400
C           2.21700         0.40200         1.15800
C           5.36700        -4.03600        -1.45200
H           5.37700        -4.79300        -2.22800
C           4.45100         1.07200         0.55600
C           5.31200        -2.08800         0.54800
H           5.29500        -1.35300         1.34000
C           3.34400         0.17100         0.39700
C           6.24300        -3.09500         0.58100
H           6.95300        -3.14300         1.39700
C           4.39100         2.08300         1.56700
C           5.48700         2.96600         1.73400
H           5.43500         3.71700         2.51300
C           3.39700        -3.01200        -2.52600
H           3.42800        -3.77600        -3.29400
C           2.14700         1.39100         2.15500
H           1.24100         1.48300         2.74000
C           6.58700         2.88300         0.92200
H           7.41700         3.56500         1.05500
C           3.22800         2.20200         2.36800
H           3.19900         2.95800         3.14300
C          -3.82300        -1.45900        -0.87300
C          -3.83000        -2.98900        -1.04100
C          -5.19400        -0.95100        -0.38800
H          -3.63800        -1.01900        -1.86200
C          -4.94400        -3.41600        -2.00900
H          -3.99200        -3.47000        -0.07500
H          -2.86600        -3.34400        -1.41200
C          -6.30800        -1.38800        -1.35000
H          -5.40300        -1.35800         0.60600
H          -5.19400         0.13700        -0.28800
C          -6.31500        -2.90600        -1.55600
H          -4.95200        -4.50500        -2.09300
H          -4.72200        -3.02800        -3.01000
H          -7.27400        -1.05100        -0.96500
H          -6.16700        -0.89000        -2.31500
H          -7.07900        -3.18200        -2.28600
H          -6.59200        -3.39800        -0.61600
C          -2.48400        -1.11500         1.95700
C          -3.36800        -0.12700         2.74100
C          -2.82300        -2.57000         2.32100
H          -1.44500        -0.92700         2.25700
C          -3.24600        -0.36700         4.25300
H          -4.41400        -0.24200         2.44200
H          -3.08000         0.90000         2.50600
C          -2.68500        -2.79700         3.83400
H          -3.85200        -2.79200         2.02500
H          -2.17900        -3.26900         1.78200
C          -3.55400        -1.81800         4.63000
H          -3.91400         0.31500         4.78500
H          -2.22800        -0.11700         4.57300
H          -2.95600        -3.82800         4.07300
H          -1.63600        -2.67600         4.12400
H          -3.40500        -1.96800         5.70100
H          -4.61100        -2.02900         4.43200

