%nprocshared=14
%mem=8GB
# nmr=giao b3lyp/def2TZVP pop=nbo scfcyc=200

Ligand 90 SPE NoRh 

0  1
P           0.20100         1.27200         0.02300
P           0.18200        -0.93500        -1.70300
C          -2.47400         2.44800        -0.12700
C          -3.10700         2.28100         1.10900
H          -2.53900         2.36900         2.02700
C          -4.47100         2.02900         1.18500
H          -4.94300         1.91400         2.15300
C          -5.23500         1.93800         0.02500
H          -6.29900         1.75000         0.08500
C          -4.62300         2.11200        -1.21100
H          -5.21000         2.06600        -2.12000
C          -3.25700         2.36600        -1.28300
H          -2.79700         2.52900        -2.25200
C          -0.99900         2.74000        -0.24300
H          -0.79800         3.04300        -1.27400
C          -0.44800         3.84500         0.68100
H          -0.83400         4.81600         0.36700
H          -0.78700         3.68800         1.70800
C           1.07800         3.79200         0.62700
H           1.53400         4.46800         1.35400
H           1.42100         4.11000        -0.36000
C           1.51000         2.34200         0.91200
H           1.30900         2.13900         1.96700
C           2.94700         1.97500         0.63800
C           3.64700         2.46900        -0.46800
H           3.16800         3.15300        -1.15800
C           4.97300         2.11300        -0.69100
H           5.50000         2.52000        -1.54600
C           5.62600         1.25300         0.18500
H           6.66100         0.98400         0.01500
C           4.94400         0.75400         1.28900
H           5.44700         0.09600         1.98700
C           3.61900         1.11300         1.51100
H           3.10400         0.73200         2.38500
C           0.85100         0.81100        -1.66900
H           1.94100         0.78400        -1.62300
H           0.55200         1.45600        -2.49600
C           2.20400        -1.39500        -3.73000
H           1.54400        -1.35500        -4.59600
H           3.06100        -2.01600        -4.00100
H           2.58200        -0.39000        -3.54200
C           1.01300        -3.42800        -2.79200
H           0.50800        -3.88000        -1.93700
H           1.86100        -4.06700        -3.04800
H           0.32600        -3.44900        -3.63900
C          -1.13200        -0.49900        -4.24000
H          -0.44700         0.33600        -4.39500
H          -2.08200        -0.23300        -4.71100
H          -0.73900        -1.36500        -4.77300
C          -2.31500        -2.00300        -2.57100
H          -1.89600        -2.92600        -2.97500
H          -3.25100        -1.81200        -3.10100
H          -2.55700        -2.16300        -1.52100
C           1.51200        -2.00600        -2.50500
H           2.25100        -2.06100        -1.69900
C          -1.37300        -0.80700        -2.75800
H          -1.86200         0.06000        -2.30200

