%nprocshared=14
%mem=8GB
# nmr=giao b3lyp/def2TZVP pop=nbo scfcyc=200

Ligand 91 SPE NoRh 

0  1
P          -0.46900         1.29500        -0.95600
P           0.68500        -1.16600        -0.25600
C          -3.30000         0.88400        -1.57000
C          -4.06700         1.59600        -0.64300
H          -3.73600         2.56500        -0.29000
C          -5.27500         1.09000        -0.17600
H          -5.85900         1.66400         0.53300
C          -5.74400        -0.13900        -0.62900
H          -6.68900        -0.52800        -0.27300
C          -4.99600        -0.85500        -1.55800
H          -5.36000        -1.80300        -1.93300
C          -3.78800        -0.34500        -2.02200
H          -3.22800        -0.90100        -2.76600
C          -1.99500         1.41400        -2.11000
H          -1.71000         0.79700        -2.96500
C          -2.00600         2.88600        -2.57500
H          -2.57600         2.97600        -3.50100
H          -2.50900         3.51400        -1.83500
C          -0.56100         3.35200        -2.74500
H          -0.50200         4.42300        -2.94900
H          -0.10800         2.84000        -3.59700
C           0.19000         3.01700        -1.44500
H          -0.20900         3.66200        -0.65700
C           1.69100         3.16500        -1.44500
C           2.47300         2.87000        -2.56700
H           2.00700         2.53600        -3.48600
C           3.85600         3.02300        -2.53500
H           4.43900         2.80200        -3.42000
C           4.48600         3.47000        -1.37900
H           5.56100         3.59800        -1.35800
C           3.72200         3.77000        -0.25600
H           4.20000         4.13500         0.64500
C           2.34100         3.61800        -0.29100
H           1.75500         3.87200         0.58500
C           0.66200         0.01000        -1.71200
H           1.65100         0.45100        -1.84400
H           0.33900        -0.41600        -2.66200
C           2.46000        -1.76800        -0.07900
C           2.60300        -2.90900         0.94500
C           3.19900        -2.11000        -1.38600
H           2.94400        -0.87800         0.34500
C           4.08200        -3.21500         1.22100
H           2.12200        -3.81100         0.55500
H           2.09300        -2.66400         1.88000
C           4.67900        -2.41100        -1.10300
H           2.74200        -2.98300        -1.85700
H           3.12500        -1.28900        -2.10100
C           4.84500        -3.52900        -0.06900
H           4.15700        -4.05000         1.92100
H           4.54200        -2.35100         1.71600
H           5.18000        -2.67900        -2.03600
H           5.16800        -1.50000        -0.73800
H           5.90300        -3.68600         0.14900
H           4.47200        -4.47000        -0.49000
C          -0.50800        -2.53200        -0.75900
C          -0.04000        -3.43600        -1.91200
C          -1.01300        -3.37000         0.43100
H          -1.36400        -1.94500        -1.11600
C          -1.16100        -4.39100        -2.34900
H           0.81800        -4.03100        -1.58500
H           0.29600        -2.84300        -2.76600
C          -2.12200        -4.33600        -0.01000
H          -0.18700        -3.94400         0.86100
H          -1.38800        -2.71000         1.21600
C          -1.67700        -5.22700        -1.17400
H          -0.79500        -5.04000        -3.14700
H          -1.98700        -3.81000        -2.77400
H          -2.43000        -4.94800         0.84100
H          -3.00100        -3.75500        -0.31100
H          -2.50300        -5.86300        -1.49800
H          -0.88200        -5.90000        -0.83300

