%nprocshared=14
%mem=8GB
# nmr=giao b3lyp/def2TZVP pop=nbo scfcyc=200

Ligand 92 SPE NoRh 

0  1
P          -0.26100         1.17900        -0.53200
P           0.98900        -1.28900        -1.19900
C          -3.11900         1.63800        -1.06600
C          -3.67600         2.06900         0.14400
H          -3.09300         2.67300         0.82900
C          -4.98500         1.74800         0.48400
H          -5.39700         2.09900         1.42200
C          -5.76900         0.99000        -0.38100
H          -6.79100         0.74900        -0.12100
C          -5.23200         0.56000        -1.58900
H          -5.83700        -0.01600        -2.27800
C          -3.92100         0.88300        -1.92600
H          -3.52400         0.55800        -2.88000
C          -1.71500         2.01700        -1.47700
H          -1.56700         1.69000        -2.50700
C          -1.42900         3.54000        -1.39200
H          -1.79400         4.03200        -2.29500
H          -1.98600         3.96800        -0.55800
C           0.06300         3.78100        -1.17400
H           0.26600         4.82200        -0.91400
H           0.61700         3.56900        -2.09100
C           0.51300         2.84700        -0.04000
H          -0.04700         3.12100         0.86000
C           1.97900         2.84600         0.31300
C           2.97500         3.13200        -0.62700
H           2.71200         3.36800        -1.65000
C           4.31800         3.15600        -0.26000
H           5.07100         3.39400        -1.00100
C           4.69200         2.89400         1.05300
H           5.73600         2.92400         1.33900
C           3.71200         2.61300         2.00000
H           3.99000         2.42600         3.03000
C           2.37200         2.59100         1.63200
H           1.61700         2.39000         2.38300
C           0.86700         0.47000        -1.85100
H           1.84000         0.95600        -1.79400
H           0.50000         0.55900        -2.87200
C           2.87300        -1.68900        -1.22000
C           3.50900        -0.85700        -0.09000
H           3.41500         0.21600        -0.25600
H           4.57700        -1.08400        -0.05100
H           3.08300        -1.08400         0.88500
C           3.55600        -1.30300        -2.54200
H           3.22200        -1.90200        -3.38500
H           4.63300        -1.46500        -2.43500
H           3.41800        -0.25100        -2.79300
C           3.10000        -3.18300        -0.93800
H           2.58700        -3.52300        -0.03700
H           4.16900        -3.35500        -0.78900
H           2.78600        -3.81300        -1.76900
C          -0.01200        -2.36500        -2.44400
C           0.65900        -2.49100        -3.81900
H           0.92600        -1.52400        -4.24800
H          -0.04300        -2.96900        -4.50800
H           1.55200        -3.11400        -3.78900
C          -1.38300        -1.69100        -2.61800
H          -1.87500        -1.50400        -1.66100
H          -2.02900        -2.35400        -3.20000
H          -1.31500        -0.75100        -3.16500
C          -0.24500        -3.76400        -1.84800
H           0.67800        -4.29600        -1.62800
H          -0.80200        -4.36500        -2.57200
H          -0.84300        -3.71400        -0.93900

