%nprocshared=14
%mem=8GB
# nmr=giao b3lyp/def2TZVP pop=nbo scfcyc=200

Ligand 9b SPE NoRh 

0  1
P          -1.12700        -0.88500         0.86500
P           1.21000        -1.07200        -0.66000
C           0.29200        -2.08400         0.61400
H           0.87800        -2.08500         1.53100
H           0.06400        -3.11300         0.34300
C           3.01700        -1.33200        -0.45200
C           3.63500        -1.00800         0.77300
C           5.01300        -1.15200         0.92200
H           5.49400        -0.91500         1.86000
C           5.78200        -1.61000        -0.14300
C           5.19100        -1.92700        -1.35700
H           5.78900        -2.28300        -2.18500
C           3.81500        -1.78700        -1.50400
C           0.79200        -1.87000        -2.27000
H           1.22800        -1.30800        -3.09500
H           1.13800        -2.90400        -2.30900
H          -0.29100        -1.84600        -2.38600
C          -2.64100        -1.67000         0.16500
C          -2.61800        -2.88600        -0.51900
C          -3.87500        -1.00300         0.30300
C          -3.77800        -3.44000        -1.05100
C          -5.03900        -1.55800        -0.22100
C          -4.98400        -2.77300        -0.89800
H          -3.73500        -4.38700        -1.57300
H          -5.98800        -1.05500        -0.11000
C          -1.39900        -0.86600         2.69400
H          -2.22200        -0.19500         2.92800
H          -1.63500        -1.86900         3.05200
H          -0.49100        -0.50600         3.17700
H           6.85200        -1.71700        -0.01400
H           3.36700        -2.03800        -2.45500
H          -5.89600        -3.19400        -1.30300
H          -1.68900        -3.42500        -0.64000
C          -5.06200         0.88700         1.21400
H          -4.78700         1.77700         1.77400
H          -5.54000         1.18100         0.27800
H          -5.75000         0.28100         1.80800
O          -3.83800         0.18700         0.97300
O           2.80800        -0.56700         1.76500
C           3.37600        -0.17800         3.01800
H           3.86600        -1.02200         3.50900
H           4.08900         0.64000         2.89100
H           2.54300         0.16100         3.62800

